*SPEF "IEEE 1481-1998"
*DESIGN "sky130_fd_sc_hvl__lsbufhv2lv_1_wrapped"
*DATE "Fri Nov 27 17:22:05 2020"
*VENDOR "AUC CSCE Department"
*PROGRAM "SPEF Extractor"
*VERSION "1.0"
*DESIGN_FLOW "PIN_CAP NONE"
*DIVIDER /
*DELIMITER :
*BUS_DELIMITER []
*T_UNIT 1.00000 NS
*C_UNIT 1.00000 PF
*R_UNIT 1.00000 OHM
*L_UNIT 1.00000 HENRY


*NAME_MAP
*0 A
*1 X

*D_NET *0 0.0018797000379900002
*CONN
*P A I
*I lvlshiftdown:A I
*CAP
0 lvlshiftdown:A 0.00059549049296
1 *0:1 0.00059549049296
2 *0:2 0.00017099706905500002
3 *0:3 0.000194976910335
4 *0:4 0.00017336245698000002
5 *0:5 0.00014938261570000003
*RES
0 lvlshiftdown:A *0:1 12.428571428571427
1 *0:2 *0:3 3.7991071428571423
2 *0:4 *0:3 0.4285714285714285
3 *0:4 *0:5 3.3035714285714284
4 lvlshiftdown:A lvlshiftdown:A 0
5 *0:1 *0:2 0
*END

*D_NET *1 0.0010787794098700001
*CONN
*P X O
*I lvlshiftdown:X O
*CAP
6 *1:1 0.00022863561133500002
7 *1:2 0.00022863561133500002
8 *1:3 0.0003107540936
9 lvlshiftdown:X 0.0003107540936
*RES
6 *1:1 *1:2 5.120535714285714
7 *1:3 lvlshiftdown:X 6.428571428571428
8 *1:3 *1:2 0
9 lvlshiftdown:X lvlshiftdown:X 0
*END

