* SPICE NETLIST
***************************************

.SUBCKT MN g s d b
.ENDS
***************************************
.SUBCKT MP g s d b
.ENDS
***************************************
.SUBCKT condiode pin0 pin1
.ENDS
***************************************
.SUBCKT condiodeHvPsub pin0 pin1
.ENDS
***************************************
.SUBCKT nvhv pin0 pin1 pin2 pin3
.ENDS
***************************************
.SUBCKT n20vhv1 pin0 pin1 pin2 pin3
.ENDS
***************************************
.SUBCKT n20nativevhv1 pin0 pin1 pin2 pin3
.ENDS
***************************************
.SUBCKT n20vhviso1 pin0 pin1 pin2 pin3 pin4
.ENDS
***************************************
.SUBCKT n20nativevhviso1 pin0 pin1 pin2 pin3 pin4
.ENDS
***************************************
.SUBCKT pvhv pin0 pin1 pin2 pin3
.ENDS
***************************************
.SUBCKT p20vhv1 pin0 pin1 pin2 pin3
.ENDS
***************************************
.SUBCKT xcnwvc pin0 pin1 pin2
.ENDS
***************************************
.SUBCKT xcnwvc2 pin0 pin1 pin2
.ENDS
***************************************
.SUBCKT xchvnwc pin0 pin1 pin2
.ENDS
***************************************
.SUBCKT Dpar d0 d1
.ENDS
***************************************
.SUBCKT xcmvpp pin0 pin1 pin2
.ENDS
***************************************
.SUBCKT xcmvpp_2 pin0 pin1 pin2
.ENDS
***************************************
.SUBCKT xcmvpp2_nhvnative10x4 pin0 pin1 pin2
.ENDS
***************************************
.SUBCKT xcmvpp2_phv5x4 pin0 pin1 pin2
.ENDS
***************************************
.SUBCKT xcmvpp_hd5_atlas_fingercap2_l5 pin0 pin1 pin2
.ENDS
***************************************
.SUBCKT xcmvpp_hd5_atlas_wafflecap2 pin0 pin1 pin2
.ENDS
***************************************
.SUBCKT xcmvpp_hd5_atlas_wafflecap1 pin0 pin1 pin2
.ENDS
***************************************
.SUBCKT xcmvpp_hd5_atlas_fingercap_l40 pin0 pin1 pin2
.ENDS
***************************************
.SUBCKT xcmvpp_hd5_atlas_fingercap_l20 pin0 pin1 pin2
.ENDS
***************************************
.SUBCKT xcmvpp_hd5_atlas_fingercap_l10 pin0 pin1 pin2
.ENDS
***************************************
.SUBCKT xcmvpp_hd5_atlas_fingercap_l5 pin0 pin1 pin2
.ENDS
***************************************
.SUBCKT xcmvpp_hd5_5x2_met5pullin pin0 pin1 pin2
.ENDS
***************************************
.SUBCKT xcmvpp_hd5_5x2 pin0 pin1 pin2
.ENDS
***************************************
.SUBCKT xcmvpp_hd5_5x1_met5pullin pin0 pin1 pin2
.ENDS
***************************************
.SUBCKT xcmvpp_hd5_5x1 pin0 pin1 pin2
.ENDS
***************************************
.SUBCKT xcmvpp_hd5_4x2 pin0 pin1 pin2
.ENDS
***************************************
.SUBCKT xcmvpp_hd5_4x1 pin0 pin1 pin2
.ENDS
***************************************
.SUBCKT xcmvpp_hd5_3x2 pin0 pin1 pin2
.ENDS
***************************************
.SUBCKT xcmvpp_hd5_3x1 pin0 pin1 pin2
.ENDS
***************************************
.SUBCKT xcmvpp_hd5_2x2 pin0 pin1 pin2
.ENDS
***************************************
.SUBCKT xcmvpp_hd5_2x1 pin0 pin1 pin2
.ENDS
***************************************
.SUBCKT xcmvpp_hd5_1x2 pin0 pin1 pin2
.ENDS
***************************************
.SUBCKT xcmvpp_hd5_1x1 pin0 pin1 pin2
.ENDS
***************************************
.SUBCKT xcmvppx4_2xnhvnative10x4 pin0 pin1 pin2 pin3
.ENDS
***************************************
.SUBCKT xcmvpp11p5x11p7_polym50p4shield pin0 pin1 pin2 pin3
.ENDS
***************************************
.SUBCKT xcmvpp4p4x4p6_m3_lim5shield pin0 pin1 pin2 pin3
.ENDS
***************************************
.SUBCKT xcmvpp11p5x11p7_m3_lim5shield pin0 pin1 pin2 pin3
.ENDS
***************************************
.SUBCKT xcmvpp8p6x7p9_m3_lim5shield pin0 pin1 pin2 pin3
.ENDS
***************************************
.SUBCKT xcmvpp11p5x11p7_lim5shield pin0 pin1 pin2 pin3
.ENDS
***************************************
.SUBCKT xcmvpp11p5x11p7_polym5shield pin0 pin1 pin2 pin3
.ENDS
***************************************
.SUBCKT xcmvpp11p5x11p7_m5shield pin0 pin1 pin2 pin3
.ENDS
***************************************
.SUBCKT xcmvpp6p8x6p1_lim4shield pin0 pin1 pin2 pin3
.ENDS
***************************************
.SUBCKT xcmvpp6p8x6p1_polym4shield pin0 pin1 pin2 pin3
.ENDS
***************************************
.SUBCKT xcmvpp11p5x11p7_polym4shield pin0 pin1 pin2 pin3
.ENDS
***************************************
.SUBCKT xcmvpp11p5x11p7_m4shield pin0 pin1 pin2 pin3
.ENDS
***************************************
.SUBCKT xcmvpp1p8x1p8 pin0 pin1 pin2
.ENDS
***************************************
.SUBCKT xcmvpp4p4x4p6_m3_lishield pin0 pin1 pin2
.ENDS
***************************************
.SUBCKT xcmvpp8p6x7p9_m3_lishield pin0 pin1 pin2
.ENDS
***************************************
.SUBCKT xcmvpp11p5x11p7_m3_lishield pin0 pin1 pin2
.ENDS
***************************************
.SUBCKT xcmvpp11p5x11p7_m3shield c0 c1 b term4
.ENDS
***************************************
.SUBCKT xcmvpp8p6x7p9_m3shield c0 c1 b term4
.ENDS
***************************************
.SUBCKT xcmvpp4p4x4p6_m3shield c0 c1 b term4
.ENDS
***************************************
.SUBCKT xcmvpp1p8x1p8_m3shield c0 c1 b term4
.ENDS
***************************************
.SUBCKT xcmvpp11p5x11p7_m1m4m5shield pin0 pin1 pin2 pin3
.ENDS
***************************************
.SUBCKT xcmvpp11p5x11p7_m1m4 pin0 pin1 pin2
.ENDS
***************************************
.SUBCKT xcmvpp11p5x11p7_m1m2 pin0 pin1 pin2
.ENDS
***************************************
.SUBCKT xcmvpp4p4x4p6_m1m2 pin0 pin1 pin2
.ENDS
***************************************
.SUBCKT xcmvpp5 pin0 pin1 pin2
.ENDS
***************************************
.SUBCKT xcmvpp4 pin0 pin1 pin2
.ENDS
***************************************
.SUBCKT xcmvpp3 pin0 pin1 pin2
.ENDS
***************************************
.SUBCKT balun pin0 pin1 pin2 pin3 pin4 pin5
.ENDS
***************************************
.SUBCKT ind4 pin0 pin1 pin2 pin3
.ENDS
***************************************
.SUBCKT xhrpoly_0p35 POS NEG SUB
.ENDS
***************************************
.SUBCKT xuhrpoly_0p35 POS NEG SUB
.ENDS
***************************************
.SUBCKT xhrpoly_0p69 POS NEG SUB
.ENDS
***************************************
.SUBCKT xuhrpoly_0p69 POS NEG SUB
.ENDS
***************************************
.SUBCKT xhrpoly_1p41 POS NEG SUB
.ENDS
***************************************
.SUBCKT xuhrpoly_1p41 POS NEG SUB
.ENDS
***************************************
.SUBCKT xhrpoly_2p85 POS NEG SUB
.ENDS
***************************************
.SUBCKT xuhrpoly_2p85 POS NEG SUB
.ENDS
***************************************
.SUBCKT xhrpoly_5p73 POS NEG SUB
.ENDS
***************************************
.SUBCKT xuhrpoly_5p73 POS NEG SUB
.ENDS
***************************************
.SUBCKT Probe probe conductor
.ENDS
***************************************
.SUBCKT sky130_fd_pr__dfl1sd2__example_55959141808666
** N=23 EP=0 IP=0 FDC=0
*.SEEDPROM
.ENDS
***************************************
.SUBCKT sky130_fd_pr__pfet_01v8__example_55959141808687 2 3 4
** N=54 EP=3 IP=33 FDC=10
*.SEEDPROM
M0 4 3 2 2 pshort L=0.18 W=7 AD=0.98 AS=1.96 PD=7.28 PS=14.56 NRD=0 NRS=0 m=1 r=38.8889 sa=90000.2 sb=90004.3 a=1.26 p=14.36 mult=1 $X=0 $Y=0 $D=79
M1 2 3 4 2 pshort L=0.18 W=7 AD=0.98 AS=0.98 PD=7.28 PS=7.28 NRD=0 NRS=0 m=1 r=38.8889 sa=90000.7 sb=90003.9 a=1.26 p=14.36 mult=1 $X=460 $Y=0 $D=79
M2 4 3 2 2 pshort L=0.18 W=7 AD=0.98 AS=0.98 PD=7.28 PS=7.28 NRD=0 NRS=0 m=1 r=38.8889 sa=90001.1 sb=90003.4 a=1.26 p=14.36 mult=1 $X=920 $Y=0 $D=79
M3 2 3 4 2 pshort L=0.18 W=7 AD=0.98 AS=0.98 PD=7.28 PS=7.28 NRD=0 NRS=0 m=1 r=38.8889 sa=90001.6 sb=90002.9 a=1.26 p=14.36 mult=1 $X=1380 $Y=0 $D=79
M4 4 3 2 2 pshort L=0.18 W=7 AD=0.98 AS=0.98 PD=7.28 PS=7.28 NRD=0 NRS=0 m=1 r=38.8889 sa=90002 sb=90002.5 a=1.26 p=14.36 mult=1 $X=1840 $Y=0 $D=79
M5 2 3 4 2 pshort L=0.18 W=7 AD=0.98 AS=0.98 PD=7.28 PS=7.28 NRD=0 NRS=0 m=1 r=38.8889 sa=90002.5 sb=90002 a=1.26 p=14.36 mult=1 $X=2300 $Y=0 $D=79
M6 4 3 2 2 pshort L=0.18 W=7 AD=0.98 AS=0.98 PD=7.28 PS=7.28 NRD=0 NRS=0 m=1 r=38.8889 sa=90002.9 sb=90001.6 a=1.26 p=14.36 mult=1 $X=2760 $Y=0 $D=79
M7 2 3 4 2 pshort L=0.18 W=7 AD=0.98 AS=0.98 PD=7.28 PS=7.28 NRD=0 NRS=0 m=1 r=38.8889 sa=90003.4 sb=90001.1 a=1.26 p=14.36 mult=1 $X=3220 $Y=0 $D=79
M8 4 3 2 2 pshort L=0.18 W=7 AD=0.98 AS=0.98 PD=7.28 PS=7.28 NRD=0 NRS=0 m=1 r=38.8889 sa=90003.9 sb=90000.7 a=1.26 p=14.36 mult=1 $X=3680 $Y=0 $D=79
M9 2 3 4 2 pshort L=0.18 W=7 AD=1.96 AS=0.98 PD=14.56 PS=7.28 NRD=0 NRS=0 m=1 r=38.8889 sa=90004.3 sb=90000.2 a=1.26 p=14.36 mult=1 $X=4140 $Y=0 $D=79
.ENDS
***************************************
.SUBCKT sky130_fd_pr__hvdfl1sd__example_5595914180851
** N=17 EP=0 IP=0 FDC=0
*.SEEDPROM
.ENDS
***************************************
.SUBCKT sky130_fd_pr__dftpl1s2__example_55959141808702
** N=62 EP=0 IP=0 FDC=0
*.SEEDPROM
.ENDS
***************************************
.SUBCKT sky130_fd_pr__dftpl1s2__example_55959141808694
** N=44 EP=0 IP=0 FDC=0
*.SEEDPROM
.ENDS
***************************************
.SUBCKT sky130_fd_pr__dfl1__example_55959141808682
** N=23 EP=0 IP=0 FDC=0
*.SEEDPROM
.ENDS
***************************************
.SUBCKT ICV_1
** N=3 EP=0 IP=6 FDC=0
*.SEEDPROM
.ENDS
***************************************
.SUBCKT sky130_fd_pr__dfl1__example_55959141808681
** N=18 EP=0 IP=0 FDC=0
*.SEEDPROM
.ENDS
***************************************
.SUBCKT ICV_2
** N=4 EP=0 IP=8 FDC=0
*.SEEDPROM
.ENDS
***************************************
.SUBCKT sky130_fd_pr__hvdfl1sd2__example_55959141808378
** N=16 EP=0 IP=0 FDC=0
*.SEEDPROM
.ENDS
***************************************
.SUBCKT sky130_fd_pr__tpl1__example_55959141808685
** N=48 EP=0 IP=0 FDC=0
.ENDS
***************************************
.SUBCKT sky130_fd_pr__tpl1__example_55959141808686
** N=57 EP=0 IP=0 FDC=0
.ENDS
***************************************
.SUBCKT sky130_fd_io__gnd2gnd_tap
** N=174 EP=0 IP=0 FDC=0
.ENDS
***************************************
.SUBCKT sky130_fd_io__gnd2gnd_diff
** N=174 EP=0 IP=0 FDC=0
.ENDS
***************************************
.SUBCKT sky130_fd_io__gnd2gnd_sub_dnwl 1 2
** N=3 EP=2 IP=22 FDC=1
X0 1 2 Dpar a=283.052 p=67.56 m=1 $[nwdiode] $X=900 $Y=900 $D=191
.ENDS
***************************************
.SUBCKT sky130_fd_pr__hvdfl1sd__example_55959141808700
** N=23 EP=0 IP=0 FDC=0
*.SEEDPROM
.ENDS
***************************************
.SUBCKT sky130_fd_pr__hvdfl1sd2__example_55959141808559
** N=24 EP=0 IP=0 FDC=0
*.SEEDPROM
.ENDS
***************************************
.SUBCKT sky130_fd_pr__nfet_01v8__example_55959141808699
** N=69 EP=0 IP=62 FDC=0
*.SEEDPROM
.ENDS
***************************************
.SUBCKT sky130_fd_pr__dfl1sd2__example_55959141808679
** N=25 EP=0 IP=0 FDC=0
*.SEEDPROM
.ENDS
***************************************
.SUBCKT sky130_fd_pr__nfet_01v8__example_55959141808696
** N=47 EP=0 IP=50 FDC=0
*.SEEDPROM
.ENDS
***************************************
.SUBCKT sky130_fd_pr__nfet_01v8__example_55959141808701 1
** N=41 EP=1 IP=38 FDC=2
*.SEEDPROM
X0 1 1 Dpar a=2.1 p=14.6 m=1 $[ndiode] $X=-1200 $Y=0 $D=181
X1 1 1 Dpar a=2.1 p=14.6 m=1 $[ndiode] $X=49360 $Y=0 $D=181
.ENDS
***************************************
.SUBCKT sky130_fd_pr__nfet_01v8__example_55959141808703 1
** N=29 EP=1 IP=26 FDC=2
*.SEEDPROM
X0 1 1 Dpar a=2.1 p=14.6 m=1 $[ndiode] $X=-1825 $Y=0 $D=181
X1 1 1 Dpar a=2.1 p=14.6 m=1 $[ndiode] $X=49035 $Y=0 $D=181
.ENDS
***************************************
.SUBCKT sky130_fd_pr__nfet_01v8__example_55959141808705 1
** N=45 EP=1 IP=40 FDC=2
*.SEEDPROM
X0 1 1 Dpar a=2.1 p=14.6 m=1 $[ndiode] $X=-1200 $Y=0 $D=181
X1 1 1 Dpar a=2.1 p=14.6 m=1 $[ndiode] $X=52130 $Y=0 $D=181
.ENDS
***************************************
.SUBCKT sky130_fd_pr__nfet_01v8__example_55959141808693 1
** N=42 EP=1 IP=40 FDC=2
*.SEEDPROM
X0 1 1 Dpar a=1.5 p=10.6 m=1 $[ndiode] $X=-1200 $Y=0 $D=181
X1 1 1 Dpar a=1.5 p=10.6 m=1 $[ndiode] $X=52130 $Y=0 $D=181
.ENDS
***************************************
.SUBCKT sky130_ef_io__vccd_lvc_clamped_pad VSSD VCCD VDDIO VSSIO VCCHIB VDDA VSWITCH VSSA AMUXBUS_B AMUXBUS_A VSSIO_Q VDDIO_Q
** N=12527 EP=12 IP=1146 FDC=501
M0 VCCD 10 VSSD VSSD nshort L=0.18 W=7 AD=3.535 AS=3.5 PD=8.01 PS=15 NRD=3.336 NRS=3.42 m=1 r=38.8889 sa=90001.1 sb=90019.9 a=1.26 p=14.36 mult=1 $X=14360 $Y=26825 $D=9
M1 VCCD 10 VSSD VSSD nshort L=0.18 W=7 AD=3.535 AS=3.5 PD=8.01 PS=15 NRD=3.336 NRS=3.42 m=1 r=38.8889 sa=90001.1 sb=90019.9 a=1.26 p=14.36 mult=1 $X=14360 $Y=36825 $D=9
M2 VCCD 10 VSSD VSSD nshort L=0.18 W=7 AD=3.535 AS=3.5 PD=8.01 PS=15 NRD=3.336 NRS=3.42 m=1 r=38.8889 sa=90001.1 sb=90019.9 a=1.26 p=14.36 mult=1 $X=14360 $Y=46825 $D=9
M3 VCCD 10 VSSD VSSD nshort L=0.18 W=7 AD=3.535 AS=3.5 PD=8.01 PS=15 NRD=3.336 NRS=3.42 m=1 r=38.8889 sa=90001.1 sb=90019.9 a=1.26 p=14.36 mult=1 $X=14360 $Y=56825 $D=9
M4 VCCD 10 VSSD VSSD nshort L=0.18 W=5 AD=2.525 AS=2.5 PD=6.01 PS=11 NRD=4.68 NRS=4.8 m=1 r=27.7778 sa=90001.1 sb=90019.9 a=0.9 p=10.36 mult=1 $X=14360 $Y=66825 $D=9
M5 VCCD 6 VSSD VSSD nshort L=0.18 W=7 AD=3.535 AS=3.5 PD=8.01 PS=15 NRD=3.336 NRS=3.42 m=1 r=38.8889 sa=90001.1 sb=90019.9 a=1.26 p=14.36 mult=1 $X=14360 $Y=186825 $D=9
M6 VSSD 10 VCCD VSSD nshort L=0.18 W=7 AD=3.5 AS=3.535 PD=15 PS=8.01 NRD=3.42 NRS=3.336 m=1 r=38.8889 sa=90002.3 sb=90019.9 a=1.26 p=14.36 mult=1 $X=15550 $Y=26825 $D=9
M7 VSSD 10 VCCD VSSD nshort L=0.18 W=7 AD=3.5 AS=3.535 PD=15 PS=8.01 NRD=3.42 NRS=3.336 m=1 r=38.8889 sa=90002.3 sb=90019.9 a=1.26 p=14.36 mult=1 $X=15550 $Y=36825 $D=9
M8 VSSD 10 VCCD VSSD nshort L=0.18 W=7 AD=3.5 AS=3.535 PD=15 PS=8.01 NRD=3.42 NRS=3.336 m=1 r=38.8889 sa=90002.3 sb=90019.9 a=1.26 p=14.36 mult=1 $X=15550 $Y=46825 $D=9
M9 VSSD 10 VCCD VSSD nshort L=0.18 W=7 AD=3.5 AS=3.535 PD=15 PS=8.01 NRD=3.42 NRS=3.336 m=1 r=38.8889 sa=90002.3 sb=90019.9 a=1.26 p=14.36 mult=1 $X=15550 $Y=56825 $D=9
M10 VSSD 10 VCCD VSSD nshort L=0.18 W=5 AD=2.5 AS=2.525 PD=11 PS=6.01 NRD=4.8 NRS=4.68 m=1 r=27.7778 sa=90002.3 sb=90019.9 a=0.9 p=10.36 mult=1 $X=15550 $Y=66825 $D=9
M11 VSSD 6 VCCD VSSD nshort L=0.18 W=7 AD=3.5 AS=3.535 PD=15 PS=8.01 NRD=3.42 NRS=3.336 m=1 r=38.8889 sa=90002.3 sb=90019.9 a=1.26 p=14.36 mult=1 $X=15550 $Y=186825 $D=9
M12 VSSD 8 VSSD VSSD nshort L=4 W=5 AD=0.7 AS=1.325 PD=5.28 PS=10.53 NRD=0 NRS=0 m=1 r=1.25 sa=2e+06 sb=2.00002e+06 a=20 p=18 mult=1 $X=12975 $Y=75770 $D=9
M13 VCCD 10 VSSD VSSD nshort L=0.18 W=7 AD=3.535 AS=3.5 PD=8.01 PS=15 NRD=3.336 NRS=3.42 m=1 r=38.8889 sa=90003.9 sb=90019.9 a=1.26 p=14.36 mult=1 $X=17130 $Y=26825 $D=9
M14 VCCD 10 VSSD VSSD nshort L=0.18 W=7 AD=3.535 AS=3.5 PD=8.01 PS=15 NRD=3.336 NRS=3.42 m=1 r=38.8889 sa=90003.9 sb=90019.9 a=1.26 p=14.36 mult=1 $X=17130 $Y=36825 $D=9
M15 VCCD 10 VSSD VSSD nshort L=0.18 W=7 AD=3.535 AS=3.5 PD=8.01 PS=15 NRD=3.336 NRS=3.42 m=1 r=38.8889 sa=90003.9 sb=90019.9 a=1.26 p=14.36 mult=1 $X=17130 $Y=46825 $D=9
M16 VCCD 10 VSSD VSSD nshort L=0.18 W=7 AD=3.535 AS=3.5 PD=8.01 PS=15 NRD=3.336 NRS=3.42 m=1 r=38.8889 sa=90003.9 sb=90019.9 a=1.26 p=14.36 mult=1 $X=17130 $Y=56825 $D=9
M17 VCCD 10 VSSD VSSD nshort L=0.18 W=5 AD=2.525 AS=2.5 PD=6.01 PS=11 NRD=4.68 NRS=4.8 m=1 r=27.7778 sa=90003.9 sb=90019.9 a=0.9 p=10.36 mult=1 $X=17130 $Y=66825 $D=9
M18 VCCD 6 VSSD VSSD nshort L=0.18 W=7 AD=3.535 AS=3.5 PD=8.01 PS=15 NRD=3.336 NRS=3.42 m=1 r=38.8889 sa=90001.1 sb=90019.9 a=1.26 p=14.36 mult=1 $X=17130 $Y=176825 $D=9
M19 VCCD 6 VSSD VSSD nshort L=0.18 W=7 AD=3.535 AS=3.5 PD=8.01 PS=15 NRD=3.336 NRS=3.42 m=1 r=38.8889 sa=90003.9 sb=90019.9 a=1.26 p=14.36 mult=1 $X=17130 $Y=186825 $D=9
M20 VCCD 6 VSSD VSSD nshort L=0.18 W=7 AD=4.095 AS=7.875 PD=8.17 PS=16.25 NRD=4.704 NRS=14.136 m=1 r=38.8889 sa=90001.7 sb=90019.9 a=1.26 p=14.36 mult=1 $X=17455 $Y=146825 $D=9
M21 VCCD 6 VSSD VSSD nshort L=0.18 W=7 AD=4.095 AS=7.875 PD=8.17 PS=16.25 NRD=4.704 NRS=14.136 m=1 r=38.8889 sa=90001.7 sb=90019.9 a=1.26 p=14.36 mult=1 $X=17455 $Y=156825 $D=9
M22 VCCD 6 VSSD VSSD nshort L=0.18 W=7 AD=4.095 AS=7.875 PD=8.17 PS=16.25 NRD=4.704 NRS=14.136 m=1 r=38.8889 sa=90001.7 sb=90019.9 a=1.26 p=14.36 mult=1 $X=17455 $Y=166825 $D=9
M23 VSSD 10 VCCD VSSD nshort L=0.18 W=7 AD=3.5 AS=3.535 PD=15 PS=8.01 NRD=3.42 NRS=3.336 m=1 r=38.8889 sa=90005.1 sb=90019.9 a=1.26 p=14.36 mult=1 $X=18320 $Y=26825 $D=9
M24 VSSD 10 VCCD VSSD nshort L=0.18 W=7 AD=3.5 AS=3.535 PD=15 PS=8.01 NRD=3.42 NRS=3.336 m=1 r=38.8889 sa=90005.1 sb=90019.9 a=1.26 p=14.36 mult=1 $X=18320 $Y=36825 $D=9
M25 VSSD 10 VCCD VSSD nshort L=0.18 W=7 AD=3.5 AS=3.535 PD=15 PS=8.01 NRD=3.42 NRS=3.336 m=1 r=38.8889 sa=90005.1 sb=90019.9 a=1.26 p=14.36 mult=1 $X=18320 $Y=46825 $D=9
M26 VSSD 10 VCCD VSSD nshort L=0.18 W=7 AD=3.5 AS=3.535 PD=15 PS=8.01 NRD=3.42 NRS=3.336 m=1 r=38.8889 sa=90005.1 sb=90019.9 a=1.26 p=14.36 mult=1 $X=18320 $Y=56825 $D=9
M27 VSSD 10 VCCD VSSD nshort L=0.18 W=5 AD=2.5 AS=2.525 PD=11 PS=6.01 NRD=4.8 NRS=4.68 m=1 r=27.7778 sa=90005.1 sb=90019.9 a=0.9 p=10.36 mult=1 $X=18320 $Y=66825 $D=9
M28 VSSD 6 VCCD VSSD nshort L=0.18 W=7 AD=3.5 AS=3.535 PD=15 PS=8.01 NRD=3.42 NRS=3.336 m=1 r=38.8889 sa=90002.3 sb=90019.9 a=1.26 p=14.36 mult=1 $X=18320 $Y=176825 $D=9
M29 VSSD 6 VCCD VSSD nshort L=0.18 W=7 AD=3.5 AS=3.535 PD=15 PS=8.01 NRD=3.42 NRS=3.336 m=1 r=38.8889 sa=90005.1 sb=90019.9 a=1.26 p=14.36 mult=1 $X=18320 $Y=186825 $D=9
M30 VSSD 6 VCCD VSSD nshort L=0.18 W=7 AD=7.875 AS=4.095 PD=16.25 PS=8.17 NRD=14.136 NRS=4.704 m=1 r=38.8889 sa=90003.1 sb=90019.9 a=1.26 p=14.36 mult=1 $X=18805 $Y=146825 $D=9
M31 VSSD 6 VCCD VSSD nshort L=0.18 W=7 AD=7.875 AS=4.095 PD=16.25 PS=8.17 NRD=14.136 NRS=4.704 m=1 r=38.8889 sa=90003.1 sb=90019.9 a=1.26 p=14.36 mult=1 $X=18805 $Y=156825 $D=9
M32 VSSD 6 VCCD VSSD nshort L=0.18 W=7 AD=7.875 AS=4.095 PD=16.25 PS=8.17 NRD=14.136 NRS=4.704 m=1 r=38.8889 sa=90003.1 sb=90019.9 a=1.26 p=14.36 mult=1 $X=18805 $Y=166825 $D=9
M33 VCCD 10 VSSD VSSD nshort L=0.18 W=7 AD=3.535 AS=3.5 PD=8.01 PS=15 NRD=3.336 NRS=3.42 m=1 r=38.8889 sa=90006.6 sb=90019.9 a=1.26 p=14.36 mult=1 $X=19900 $Y=26825 $D=9
M34 VCCD 10 VSSD VSSD nshort L=0.18 W=7 AD=3.535 AS=3.5 PD=8.01 PS=15 NRD=3.336 NRS=3.42 m=1 r=38.8889 sa=90006.6 sb=90019.9 a=1.26 p=14.36 mult=1 $X=19900 $Y=36825 $D=9
M35 VCCD 10 VSSD VSSD nshort L=0.18 W=7 AD=3.535 AS=3.5 PD=8.01 PS=15 NRD=3.336 NRS=3.42 m=1 r=38.8889 sa=90006.6 sb=90019.9 a=1.26 p=14.36 mult=1 $X=19900 $Y=46825 $D=9
M36 VCCD 10 VSSD VSSD nshort L=0.18 W=7 AD=3.535 AS=3.5 PD=8.01 PS=15 NRD=3.336 NRS=3.42 m=1 r=38.8889 sa=90006.6 sb=90019.9 a=1.26 p=14.36 mult=1 $X=19900 $Y=56825 $D=9
M37 VCCD 10 VSSD VSSD nshort L=0.18 W=5 AD=2.525 AS=2.5 PD=6.01 PS=11 NRD=4.68 NRS=4.8 m=1 r=27.7778 sa=90006.6 sb=90019.9 a=0.9 p=10.36 mult=1 $X=19900 $Y=66825 $D=9
M38 VCCD 6 VSSD VSSD nshort L=0.18 W=7 AD=3.535 AS=3.5 PD=8.01 PS=15 NRD=3.336 NRS=3.42 m=1 r=38.8889 sa=90003.9 sb=90019.9 a=1.26 p=14.36 mult=1 $X=19900 $Y=176825 $D=9
M39 VCCD 6 VSSD VSSD nshort L=0.18 W=7 AD=3.535 AS=3.5 PD=8.01 PS=15 NRD=3.336 NRS=3.42 m=1 r=38.8889 sa=90006.6 sb=90019.9 a=1.26 p=14.36 mult=1 $X=19900 $Y=186825 $D=9
M40 VSSD 10 VCCD VSSD nshort L=0.18 W=7 AD=3.5 AS=3.535 PD=15 PS=8.01 NRD=3.42 NRS=3.336 m=1 r=38.8889 sa=90007.8 sb=90019.9 a=1.26 p=14.36 mult=1 $X=21090 $Y=26825 $D=9
M41 VSSD 10 VCCD VSSD nshort L=0.18 W=7 AD=3.5 AS=3.535 PD=15 PS=8.01 NRD=3.42 NRS=3.336 m=1 r=38.8889 sa=90007.8 sb=90019.9 a=1.26 p=14.36 mult=1 $X=21090 $Y=36825 $D=9
M42 VSSD 10 VCCD VSSD nshort L=0.18 W=7 AD=3.5 AS=3.535 PD=15 PS=8.01 NRD=3.42 NRS=3.336 m=1 r=38.8889 sa=90007.8 sb=90019.9 a=1.26 p=14.36 mult=1 $X=21090 $Y=46825 $D=9
M43 VSSD 10 VCCD VSSD nshort L=0.18 W=7 AD=3.5 AS=3.535 PD=15 PS=8.01 NRD=3.42 NRS=3.336 m=1 r=38.8889 sa=90007.8 sb=90019.9 a=1.26 p=14.36 mult=1 $X=21090 $Y=56825 $D=9
M44 VSSD 10 VCCD VSSD nshort L=0.18 W=5 AD=2.5 AS=2.525 PD=11 PS=6.01 NRD=4.8 NRS=4.68 m=1 r=27.7778 sa=90007.8 sb=90019.9 a=0.9 p=10.36 mult=1 $X=21090 $Y=66825 $D=9
M45 VSSD 6 VCCD VSSD nshort L=0.18 W=7 AD=3.5 AS=3.535 PD=15 PS=8.01 NRD=3.42 NRS=3.336 m=1 r=38.8889 sa=90005.1 sb=90019.9 a=1.26 p=14.36 mult=1 $X=21090 $Y=176825 $D=9
M46 VSSD 6 VCCD VSSD nshort L=0.18 W=7 AD=3.5 AS=3.535 PD=15 PS=8.01 NRD=3.42 NRS=3.336 m=1 r=38.8889 sa=90007.8 sb=90019.9 a=1.26 p=14.36 mult=1 $X=21090 $Y=186825 $D=9
M47 VCCD 6 VSSD VSSD nshort L=0.18 W=7 AD=4.095 AS=7.875 PD=8.17 PS=16.25 NRD=4.704 NRS=14.136 m=1 r=38.8889 sa=90005.9 sb=90019.9 a=1.26 p=14.36 mult=1 $X=21635 $Y=146825 $D=9
M48 VCCD 6 VSSD VSSD nshort L=0.18 W=7 AD=4.095 AS=7.875 PD=8.17 PS=16.25 NRD=4.704 NRS=14.136 m=1 r=38.8889 sa=90005.9 sb=90019.9 a=1.26 p=14.36 mult=1 $X=21635 $Y=156825 $D=9
M49 VCCD 6 VSSD VSSD nshort L=0.18 W=7 AD=4.095 AS=7.875 PD=8.17 PS=16.25 NRD=4.704 NRS=14.136 m=1 r=38.8889 sa=90005.9 sb=90019.9 a=1.26 p=14.36 mult=1 $X=21635 $Y=166825 $D=9
M50 VCCD 10 VSSD VSSD nshort L=0.18 W=7 AD=3.535 AS=3.5 PD=8.01 PS=15 NRD=3.336 NRS=3.42 m=1 r=38.8889 sa=90009.4 sb=90019.9 a=1.26 p=14.36 mult=1 $X=22670 $Y=26825 $D=9
M51 VCCD 10 VSSD VSSD nshort L=0.18 W=7 AD=3.535 AS=3.5 PD=8.01 PS=15 NRD=3.336 NRS=3.42 m=1 r=38.8889 sa=90009.4 sb=90019.9 a=1.26 p=14.36 mult=1 $X=22670 $Y=36825 $D=9
M52 VCCD 10 VSSD VSSD nshort L=0.18 W=7 AD=3.535 AS=3.5 PD=8.01 PS=15 NRD=3.336 NRS=3.42 m=1 r=38.8889 sa=90009.4 sb=90019.9 a=1.26 p=14.36 mult=1 $X=22670 $Y=46825 $D=9
M53 VCCD 10 VSSD VSSD nshort L=0.18 W=7 AD=3.535 AS=3.5 PD=8.01 PS=15 NRD=3.336 NRS=3.42 m=1 r=38.8889 sa=90009.4 sb=90019.9 a=1.26 p=14.36 mult=1 $X=22670 $Y=56825 $D=9
M54 VCCD 10 VSSD VSSD nshort L=0.18 W=5 AD=2.525 AS=2.5 PD=6.01 PS=11 NRD=4.68 NRS=4.8 m=1 r=27.7778 sa=90009.4 sb=90019.9 a=0.9 p=10.36 mult=1 $X=22670 $Y=66825 $D=9
M55 VCCD 6 VSSD VSSD nshort L=0.18 W=7 AD=3.535 AS=3.5 PD=8.01 PS=15 NRD=3.336 NRS=3.42 m=1 r=38.8889 sa=90006.6 sb=90019.9 a=1.26 p=14.36 mult=1 $X=22670 $Y=176825 $D=9
M56 VCCD 6 VSSD VSSD nshort L=0.18 W=7 AD=3.535 AS=3.5 PD=8.01 PS=15 NRD=3.336 NRS=3.42 m=1 r=38.8889 sa=90009.4 sb=90019.9 a=1.26 p=14.36 mult=1 $X=22670 $Y=186825 $D=9
M57 VSSD 6 VCCD VSSD nshort L=0.18 W=7 AD=7.875 AS=4.095 PD=16.25 PS=8.17 NRD=14.136 NRS=4.704 m=1 r=38.8889 sa=90007.3 sb=90019.9 a=1.26 p=14.36 mult=1 $X=22985 $Y=146825 $D=9
M58 VSSD 6 VCCD VSSD nshort L=0.18 W=7 AD=7.875 AS=4.095 PD=16.25 PS=8.17 NRD=14.136 NRS=4.704 m=1 r=38.8889 sa=90007.3 sb=90019.9 a=1.26 p=14.36 mult=1 $X=22985 $Y=156825 $D=9
M59 VSSD 6 VCCD VSSD nshort L=0.18 W=7 AD=7.875 AS=4.095 PD=16.25 PS=8.17 NRD=14.136 NRS=4.704 m=1 r=38.8889 sa=90007.3 sb=90019.9 a=1.26 p=14.36 mult=1 $X=22985 $Y=166825 $D=9
M60 VSSD 10 VCCD VSSD nshort L=0.18 W=7 AD=3.5 AS=3.535 PD=15 PS=8.01 NRD=3.42 NRS=3.336 m=1 r=38.8889 sa=90010.6 sb=90019.9 a=1.26 p=14.36 mult=1 $X=23860 $Y=26825 $D=9
M61 VSSD 10 VCCD VSSD nshort L=0.18 W=7 AD=3.5 AS=3.535 PD=15 PS=8.01 NRD=3.42 NRS=3.336 m=1 r=38.8889 sa=90010.6 sb=90019.9 a=1.26 p=14.36 mult=1 $X=23860 $Y=36825 $D=9
M62 VSSD 10 VCCD VSSD nshort L=0.18 W=7 AD=3.5 AS=3.535 PD=15 PS=8.01 NRD=3.42 NRS=3.336 m=1 r=38.8889 sa=90010.6 sb=90019.9 a=1.26 p=14.36 mult=1 $X=23860 $Y=46825 $D=9
M63 VSSD 10 VCCD VSSD nshort L=0.18 W=7 AD=3.5 AS=3.535 PD=15 PS=8.01 NRD=3.42 NRS=3.336 m=1 r=38.8889 sa=90010.6 sb=90019.9 a=1.26 p=14.36 mult=1 $X=23860 $Y=56825 $D=9
M64 VSSD 10 VCCD VSSD nshort L=0.18 W=5 AD=2.5 AS=2.525 PD=11 PS=6.01 NRD=4.8 NRS=4.68 m=1 r=27.7778 sa=90010.6 sb=90019.9 a=0.9 p=10.36 mult=1 $X=23860 $Y=66825 $D=9
M65 VSSD 6 VCCD VSSD nshort L=0.18 W=7 AD=3.5 AS=3.535 PD=15 PS=8.01 NRD=3.42 NRS=3.336 m=1 r=38.8889 sa=90007.8 sb=90019.9 a=1.26 p=14.36 mult=1 $X=23860 $Y=176825 $D=9
M66 VSSD 6 VCCD VSSD nshort L=0.18 W=7 AD=3.5 AS=3.535 PD=15 PS=8.01 NRD=3.42 NRS=3.336 m=1 r=38.8889 sa=90010.6 sb=90019.9 a=1.26 p=14.36 mult=1 $X=23860 $Y=186825 $D=9
M67 VSSD 8 10 VSSD nshort L=0.18 W=7 AD=2.3975 AS=4.76 PD=7.685 PS=15.36 NRD=6.936 NRS=6.852 m=1 r=38.8889 sa=90000.6 sb=90019.9 a=1.26 p=14.36 mult=1 $X=24670 $Y=82770 $D=9
M68 VSSD 8 10 VSSD nshort L=0.18 W=7 AD=2.3975 AS=4.76 PD=7.685 PS=15.36 NRD=6.936 NRS=6.852 m=1 r=38.8889 sa=90000.6 sb=90019.9 a=1.26 p=14.36 mult=1 $X=24670 $Y=91265 $D=9
M69 VSSD 4 6 VSSD nshort L=0.18 W=7 AD=2.3975 AS=4.76 PD=7.685 PS=15.36 NRD=6.936 NRS=6.852 m=1 r=38.8889 sa=90000.6 sb=90019.9 a=1.26 p=14.36 mult=1 $X=24670 $Y=101370 $D=9
M70 VSSD 4 6 VSSD nshort L=0.18 W=7 AD=2.3975 AS=4.76 PD=7.685 PS=15.36 NRD=6.936 NRS=6.852 m=1 r=38.8889 sa=90000.6 sb=90019.9 a=1.26 p=14.36 mult=1 $X=24670 $Y=109865 $D=9
M71 VSSD 4 6 VSSD nshort L=0.18 W=7 AD=2.3975 AS=4.76 PD=7.685 PS=15.36 NRD=6.936 NRS=6.852 m=1 r=38.8889 sa=90000.6 sb=90019.9 a=1.26 p=14.36 mult=1 $X=24670 $Y=118690 $D=9
M72 VSSD 8 VSSD VSSD nshort L=8 W=5 AD=0.7 AS=0.7 PD=5.28 PS=5.28 NRD=0 NRS=0 m=1 r=0.625 sa=4e+06 sb=4.00002e+06 a=40 p=26 mult=1 $X=17255 $Y=75770 $D=9
M73 VCCD 10 VSSD VSSD nshort L=0.18 W=7 AD=3.535 AS=3.5 PD=8.01 PS=15 NRD=3.336 NRS=3.42 m=1 r=38.8889 sa=90012.2 sb=90019.9 a=1.26 p=14.36 mult=1 $X=25440 $Y=26825 $D=9
M74 VCCD 10 VSSD VSSD nshort L=0.18 W=7 AD=3.535 AS=3.5 PD=8.01 PS=15 NRD=3.336 NRS=3.42 m=1 r=38.8889 sa=90012.2 sb=90019.9 a=1.26 p=14.36 mult=1 $X=25440 $Y=36825 $D=9
M75 VCCD 10 VSSD VSSD nshort L=0.18 W=7 AD=3.535 AS=3.5 PD=8.01 PS=15 NRD=3.336 NRS=3.42 m=1 r=38.8889 sa=90012.2 sb=90019.9 a=1.26 p=14.36 mult=1 $X=25440 $Y=46825 $D=9
M76 VCCD 10 VSSD VSSD nshort L=0.18 W=7 AD=3.535 AS=3.5 PD=8.01 PS=15 NRD=3.336 NRS=3.42 m=1 r=38.8889 sa=90012.2 sb=90019.9 a=1.26 p=14.36 mult=1 $X=25440 $Y=56825 $D=9
M77 VCCD 10 VSSD VSSD nshort L=0.18 W=5 AD=2.525 AS=2.5 PD=6.01 PS=11 NRD=4.68 NRS=4.8 m=1 r=27.7778 sa=90012.2 sb=90019.9 a=0.9 p=10.36 mult=1 $X=25440 $Y=66825 $D=9
M78 VCCD 6 VSSD VSSD nshort L=0.18 W=7 AD=3.535 AS=3.5 PD=8.01 PS=15 NRD=3.336 NRS=3.42 m=1 r=38.8889 sa=90009.4 sb=90019.9 a=1.26 p=14.36 mult=1 $X=25440 $Y=176825 $D=9
M79 VCCD 6 VSSD VSSD nshort L=0.18 W=7 AD=3.535 AS=3.5 PD=8.01 PS=15 NRD=3.336 NRS=3.42 m=1 r=38.8889 sa=90012.2 sb=90019.9 a=1.26 p=14.36 mult=1 $X=25440 $Y=186825 $D=9
M80 VCCD 6 VSSD VSSD nshort L=0.18 W=5 AD=2.925 AS=5.625 PD=6.17 PS=12.25 NRD=6.6 NRS=19.788 m=1 r=27.7778 sa=90001.7 sb=90019.9 a=0.9 p=10.36 mult=1 $X=25815 $Y=128720 $D=9
M81 VCCD 6 VSSD VSSD nshort L=0.18 W=7 AD=4.095 AS=7.875 PD=8.17 PS=16.25 NRD=4.704 NRS=14.136 m=1 r=38.8889 sa=90001.7 sb=90019.9 a=1.26 p=14.36 mult=1 $X=25815 $Y=136825 $D=9
M82 VCCD 6 VSSD VSSD nshort L=0.18 W=7 AD=4.095 AS=7.875 PD=8.17 PS=16.25 NRD=4.704 NRS=14.136 m=1 r=38.8889 sa=90010.1 sb=90019.9 a=1.26 p=14.36 mult=1 $X=25815 $Y=146825 $D=9
M83 VCCD 6 VSSD VSSD nshort L=0.18 W=7 AD=4.095 AS=7.875 PD=8.17 PS=16.25 NRD=4.704 NRS=14.136 m=1 r=38.8889 sa=90010.1 sb=90019.9 a=1.26 p=14.36 mult=1 $X=25815 $Y=156825 $D=9
M84 VCCD 6 VSSD VSSD nshort L=0.18 W=7 AD=4.095 AS=7.875 PD=8.17 PS=16.25 NRD=4.704 NRS=14.136 m=1 r=38.8889 sa=90010.1 sb=90019.9 a=1.26 p=14.36 mult=1 $X=25815 $Y=166825 $D=9
M85 VSSD 10 VCCD VSSD nshort L=0.18 W=7 AD=3.5 AS=3.535 PD=15 PS=8.01 NRD=3.42 NRS=3.336 m=1 r=38.8889 sa=90013.4 sb=90019.9 a=1.26 p=14.36 mult=1 $X=26630 $Y=26825 $D=9
M86 VSSD 10 VCCD VSSD nshort L=0.18 W=7 AD=3.5 AS=3.535 PD=15 PS=8.01 NRD=3.42 NRS=3.336 m=1 r=38.8889 sa=90013.4 sb=90019.9 a=1.26 p=14.36 mult=1 $X=26630 $Y=36825 $D=9
M87 VSSD 10 VCCD VSSD nshort L=0.18 W=7 AD=3.5 AS=3.535 PD=15 PS=8.01 NRD=3.42 NRS=3.336 m=1 r=38.8889 sa=90013.4 sb=90019.9 a=1.26 p=14.36 mult=1 $X=26630 $Y=46825 $D=9
M88 VSSD 10 VCCD VSSD nshort L=0.18 W=7 AD=3.5 AS=3.535 PD=15 PS=8.01 NRD=3.42 NRS=3.336 m=1 r=38.8889 sa=90013.4 sb=90019.9 a=1.26 p=14.36 mult=1 $X=26630 $Y=56825 $D=9
M89 VSSD 10 VCCD VSSD nshort L=0.18 W=5 AD=2.5 AS=2.525 PD=11 PS=6.01 NRD=4.8 NRS=4.68 m=1 r=27.7778 sa=90013.4 sb=90019.9 a=0.9 p=10.36 mult=1 $X=26630 $Y=66825 $D=9
M90 VSSD 6 VCCD VSSD nshort L=0.18 W=7 AD=3.5 AS=3.535 PD=15 PS=8.01 NRD=3.42 NRS=3.336 m=1 r=38.8889 sa=90010.6 sb=90019.9 a=1.26 p=14.36 mult=1 $X=26630 $Y=176825 $D=9
M91 VSSD 6 VCCD VSSD nshort L=0.18 W=7 AD=3.5 AS=3.535 PD=15 PS=8.01 NRD=3.42 NRS=3.336 m=1 r=38.8889 sa=90013.4 sb=90019.9 a=1.26 p=14.36 mult=1 $X=26630 $Y=186825 $D=9
M92 VSSD 6 VCCD VSSD nshort L=0.18 W=5 AD=5.625 AS=2.925 PD=12.25 PS=6.17 NRD=19.788 NRS=6.6 m=1 r=27.7778 sa=90003.1 sb=90019.9 a=0.9 p=10.36 mult=1 $X=27165 $Y=128720 $D=9
M93 VSSD 6 VCCD VSSD nshort L=0.18 W=7 AD=7.875 AS=4.095 PD=16.25 PS=8.17 NRD=14.136 NRS=4.704 m=1 r=38.8889 sa=90003.1 sb=90019.9 a=1.26 p=14.36 mult=1 $X=27165 $Y=136825 $D=9
M94 VSSD 6 VCCD VSSD nshort L=0.18 W=7 AD=7.875 AS=4.095 PD=16.25 PS=8.17 NRD=14.136 NRS=4.704 m=1 r=38.8889 sa=90011.4 sb=90019.9 a=1.26 p=14.36 mult=1 $X=27165 $Y=146825 $D=9
M95 VSSD 6 VCCD VSSD nshort L=0.18 W=7 AD=7.875 AS=4.095 PD=16.25 PS=8.17 NRD=14.136 NRS=4.704 m=1 r=38.8889 sa=90011.4 sb=90019.9 a=1.26 p=14.36 mult=1 $X=27165 $Y=156825 $D=9
M96 VSSD 6 VCCD VSSD nshort L=0.18 W=7 AD=7.875 AS=4.095 PD=16.25 PS=8.17 NRD=14.136 NRS=4.704 m=1 r=38.8889 sa=90011.4 sb=90019.9 a=1.26 p=14.36 mult=1 $X=27165 $Y=166825 $D=9
M97 VCCD 10 VSSD VSSD nshort L=0.18 W=7 AD=3.535 AS=3.5 PD=8.01 PS=15 NRD=3.336 NRS=3.42 m=1 r=38.8889 sa=90015 sb=90019.9 a=1.26 p=14.36 mult=1 $X=28210 $Y=26825 $D=9
M98 VCCD 10 VSSD VSSD nshort L=0.18 W=7 AD=3.535 AS=3.5 PD=8.01 PS=15 NRD=3.336 NRS=3.42 m=1 r=38.8889 sa=90015 sb=90019.9 a=1.26 p=14.36 mult=1 $X=28210 $Y=36825 $D=9
M99 VCCD 10 VSSD VSSD nshort L=0.18 W=7 AD=3.535 AS=3.5 PD=8.01 PS=15 NRD=3.336 NRS=3.42 m=1 r=38.8889 sa=90015 sb=90019.9 a=1.26 p=14.36 mult=1 $X=28210 $Y=46825 $D=9
M100 VCCD 10 VSSD VSSD nshort L=0.18 W=7 AD=3.535 AS=3.5 PD=8.01 PS=15 NRD=3.336 NRS=3.42 m=1 r=38.8889 sa=90015 sb=90019.9 a=1.26 p=14.36 mult=1 $X=28210 $Y=56825 $D=9
M101 VCCD 10 VSSD VSSD nshort L=0.18 W=5 AD=2.525 AS=2.5 PD=6.01 PS=11 NRD=4.68 NRS=4.8 m=1 r=27.7778 sa=90015 sb=90019.9 a=0.9 p=10.36 mult=1 $X=28210 $Y=66825 $D=9
M102 VCCD 6 VSSD VSSD nshort L=0.18 W=7 AD=3.535 AS=3.5 PD=8.01 PS=15 NRD=3.336 NRS=3.42 m=1 r=38.8889 sa=90012.2 sb=90019.9 a=1.26 p=14.36 mult=1 $X=28210 $Y=176825 $D=9
M103 VCCD 6 VSSD VSSD nshort L=0.18 W=7 AD=3.535 AS=3.5 PD=8.01 PS=15 NRD=3.336 NRS=3.42 m=1 r=38.8889 sa=90015 sb=90019.9 a=1.26 p=14.36 mult=1 $X=28210 $Y=186825 $D=9