* NGSPICE file created from gpio_control_block.ext - technology: sky130A

* Black-box entry subcircuit for sky130_fd_sc_hd__decap_4 abstract view
.subckt sky130_fd_sc_hd__decap_4 VGND VNB VPB VPWR
.ends

* Black-box entry subcircuit for sky130_fd_sc_hd__buf_2 abstract view
.subckt sky130_fd_sc_hd__buf_2 A X VGND VNB VPB VPWR
.ends

* Black-box entry subcircuit for sky130_fd_sc_hd__decap_8 abstract view
.subckt sky130_fd_sc_hd__decap_8 VGND VNB VPB VPWR
.ends

* Black-box entry subcircuit for sky130_fd_sc_hd__decap_6 abstract view
.subckt sky130_fd_sc_hd__decap_6 VGND VNB VPB VPWR
.ends

* Black-box entry subcircuit for sky130_fd_sc_hd__decap_12 abstract view
.subckt sky130_fd_sc_hd__decap_12 VGND VNB VPB VPWR
.ends

* Black-box entry subcircuit for sky130_fd_sc_hd__fill_2 abstract view
.subckt sky130_fd_sc_hd__fill_2 VGND VNB VPB VPWR
.ends

* Black-box entry subcircuit for sky130_fd_sc_hd__fill_1 abstract view
.subckt sky130_fd_sc_hd__fill_1 VGND VNB VPB VPWR
.ends

* Black-box entry subcircuit for sky130_fd_sc_hd__decap_3 abstract view
.subckt sky130_fd_sc_hd__decap_3 VGND VNB VPB VPWR
.ends

* Black-box entry subcircuit for sky130_fd_sc_hd__dfrtp_4 abstract view
.subckt sky130_fd_sc_hd__dfrtp_4 D Q RESET_B CLK VGND VNB VPB VPWR
.ends

* Black-box entry subcircuit for sky130_fd_sc_hd__tapvpwrvgnd_1 abstract view
.subckt sky130_fd_sc_hd__tapvpwrvgnd_1 VGND VPWR
.ends

* Black-box entry subcircuit for sky130_fd_sc_hd__and2_4 abstract view
.subckt sky130_fd_sc_hd__and2_4 A B X VGND VNB VPB VPWR
.ends

* Black-box entry subcircuit for sky130_fd_sc_hd__inv_2 abstract view
.subckt sky130_fd_sc_hd__inv_2 A Y VGND VNB VPB VPWR
.ends

* Black-box entry subcircuit for sky130_fd_sc_hd__nand2_4 abstract view
.subckt sky130_fd_sc_hd__nand2_4 A B Y VGND VNB VPB VPWR
.ends

* Black-box entry subcircuit for sky130_fd_sc_hd__a32o_4 abstract view
.subckt sky130_fd_sc_hd__a32o_4 A1 A2 A3 B1 B2 X VGND VNB VPB VPWR
.ends

* Black-box entry subcircuit for sky130_fd_sc_hd__einvp_8 abstract view
.subckt sky130_fd_sc_hd__einvp_8 A TE Z VGND VNB VPB VPWR
.ends

* Black-box entry subcircuit for sky130_fd_sc_hd__or2_4 abstract view
.subckt sky130_fd_sc_hd__or2_4 A B X VGND VNB VPB VPWR
.ends

* Black-box entry subcircuit for sky130_fd_sc_hd__and3_4 abstract view
.subckt sky130_fd_sc_hd__and3_4 A B C X VGND VNB VPB VPWR
.ends

* Black-box entry subcircuit for sky130_fd_sc_hd__clkbuf_1 abstract view
.subckt sky130_fd_sc_hd__clkbuf_1 A X VGND VNB VPB VPWR
.ends

* Black-box entry subcircuit for sky130_fd_sc_hd__conb_1 abstract view
.subckt sky130_fd_sc_hd__conb_1 HI LO VGND VNB VPB VPWR
.ends

* Black-box entry subcircuit for sky130_fd_sc_hd__dfstp_4 abstract view
.subckt sky130_fd_sc_hd__dfstp_4 D Q SET_B CLK VGND VNB VPB VPWR
.ends

* Black-box entry subcircuit for sky130_fd_sc_hd__clkbuf_16 abstract view
.subckt sky130_fd_sc_hd__clkbuf_16 A X VGND VNB VPB VPWR
.ends

.subckt gpio_control_block mgmt_gpio_in mgmt_gpio_oeb mgmt_gpio_out pad_gpio_ana_en
+ pad_gpio_ana_pol pad_gpio_ana_sel pad_gpio_dm[0] pad_gpio_dm[1] pad_gpio_dm[2] pad_gpio_holdover
+ pad_gpio_ib_mode_sel pad_gpio_in pad_gpio_inenb pad_gpio_out pad_gpio_outenb pad_gpio_slow_sel
+ pad_gpio_vtrip_sel resetn serial_clock serial_data_in serial_data_out user_gpio_in
+ user_gpio_oeb user_gpio_out VPWR VGND
XFILLER_12_32 VGND VGND VPWR VPWR sky130_fd_sc_hd__decap_4
X_062_ _061_/A _062_/X VGND VGND VPWR VPWR sky130_fd_sc_hd__buf_2
XFILLER_23_53 VGND VGND VPWR VPWR sky130_fd_sc_hd__decap_8
X_045_ _044_/A _045_/X VGND VGND VPWR VPWR sky130_fd_sc_hd__buf_2
XFILLER_29_74 VGND VGND VPWR VPWR sky130_fd_sc_hd__decap_6
XFILLER_13_3 VGND VGND VPWR VPWR sky130_fd_sc_hd__decap_12
XFILLER_6_67 VGND VGND VPWR VPWR sky130_fd_sc_hd__decap_12
X_061_ _061_/A _061_/X VGND VGND VPWR VPWR sky130_fd_sc_hd__buf_2
X_044_ _044_/A _044_/X VGND VGND VPWR VPWR sky130_fd_sc_hd__buf_2
XFILLER_18_32 VGND VGND VPWR VPWR sky130_fd_sc_hd__decap_8
XFILLER_6_79 VGND VGND VPWR VPWR sky130_fd_sc_hd__fill_2
XFILLER_26_32 VGND VGND VPWR VPWR sky130_fd_sc_hd__decap_8
XFILLER_12_23 VGND VGND VPWR VPWR sky130_fd_sc_hd__decap_8
X_060_ _061_/A _060_/X VGND VGND VPWR VPWR sky130_fd_sc_hd__buf_2
XFILLER_0_15 VGND VGND VPWR VPWR sky130_fd_sc_hd__decap_12
XFILLER_36_3 VGND VGND VPWR VPWR sky130_fd_sc_hd__decap_12
X_043_ _044_/A _043_/X VGND VGND VPWR VPWR sky130_fd_sc_hd__buf_2
XFILLER_34_32 VGND VGND VPWR VPWR sky130_fd_sc_hd__decap_12
XFILLER_20_23 VGND VGND VPWR VPWR sky130_fd_sc_hd__decap_8
XFILLER_1_80 VGND VGND VPWR VPWR sky130_fd_sc_hd__fill_1
XFILLER_3_26 VGND VGND VPWR VPWR sky130_fd_sc_hd__decap_12
XFILLER_12_79 VGND VGND VPWR VPWR sky130_fd_sc_hd__fill_2
XFILLER_23_34 VGND VGND VPWR VPWR sky130_fd_sc_hd__fill_2
XFILLER_0_27 VGND VGND VPWR VPWR sky130_fd_sc_hd__decap_4
XFILLER_9_58 VGND VGND VPWR VPWR sky130_fd_sc_hd__decap_3
XFILLER_34_44 VGND VGND VPWR VPWR sky130_fd_sc_hd__decap_12
X_042_ _044_/A _042_/X VGND VGND VPWR VPWR sky130_fd_sc_hd__buf_2
XFILLER_20_68 VGND VGND VPWR VPWR sky130_fd_sc_hd__decap_12
XFILLER_11_3 VGND VGND VPWR VPWR sky130_fd_sc_hd__decap_12
XFILLER_7_80 VGND VGND VPWR VPWR sky130_fd_sc_hd__fill_1
XFILLER_3_49 VGND VGND VPWR VPWR sky130_fd_sc_hd__decap_12
XFILLER_3_38 VGND VGND VPWR VPWR sky130_fd_sc_hd__decap_4
XFILLER_23_79 VGND VGND VPWR VPWR sky130_fd_sc_hd__fill_2
XFILLER_9_26 VGND VGND VPWR VPWR sky130_fd_sc_hd__decap_8
XFILLER_18_79 VGND VGND VPWR VPWR sky130_fd_sc_hd__fill_2
X_041_ _058_/A _044_/A VGND VGND VPWR VPWR sky130_fd_sc_hd__buf_2
XFILLER_34_56 VGND VGND VPWR VPWR sky130_fd_sc_hd__decap_12
XFILLER_20_36 VGND VGND VPWR VPWR sky130_fd_sc_hd__decap_8
XFILLER_6_16 VGND VGND VPWR VPWR sky130_fd_sc_hd__decap_12
XFILLER_15_58 VGND VGND VPWR VPWR sky130_fd_sc_hd__decap_3
XFILLER_12_59 VGND VGND VPWR VPWR sky130_fd_sc_hd__decap_8
XFILLER_12_15 VGND VGND VPWR VPWR sky130_fd_sc_hd__fill_1
XFILLER_9_38 VGND VGND VPWR VPWR sky130_fd_sc_hd__decap_8
X_040_ _064_/A _058_/A VGND VGND VPWR VPWR sky130_fd_sc_hd__buf_2
XFILLER_34_68 VGND VGND VPWR VPWR sky130_fd_sc_hd__decap_12
XFILLER_18_47 VGND VGND VPWR VPWR sky130_fd_sc_hd__decap_8
XFILLER_1_3 VGND VGND VPWR VPWR sky130_fd_sc_hd__decap_12
XFILLER_34_3 VGND VGND VPWR VPWR sky130_fd_sc_hd__decap_12
XFILLER_20_15 VGND VGND VPWR VPWR sky130_fd_sc_hd__decap_4
XFILLER_10_70 VGND VGND VPWR VPWR sky130_fd_sc_hd__decap_8
XFILLER_6_28 VGND VGND VPWR VPWR sky130_fd_sc_hd__decap_3
XFILLER_31_58 VGND VGND VPWR VPWR sky130_fd_sc_hd__decap_3
XFILLER_15_26 VGND VGND VPWR VPWR sky130_fd_sc_hd__decap_12
XPHY_0 VGND VGND VPWR VPWR sky130_fd_sc_hd__decap_3
XFILLER_26_47 VGND VGND VPWR VPWR sky130_fd_sc_hd__decap_8
XFILLER_16_80 VGND VGND VPWR VPWR sky130_fd_sc_hd__fill_1
XFILLER_23_26 VGND VGND VPWR VPWR sky130_fd_sc_hd__decap_8
XFILLER_18_59 VGND VGND VPWR VPWR sky130_fd_sc_hd__decap_12
XFILLER_18_15 VGND VGND VPWR VPWR sky130_fd_sc_hd__decap_12
X_099_ _099_/D _099_/Q _049_/X _103_/CLK VGND VGND VPWR VPWR sky130_fd_sc_hd__dfrtp_4
XFILLER_27_3 VGND VGND VPWR VPWR sky130_fd_sc_hd__decap_12
XFILLER_29_58 VGND VGND VPWR VPWR sky130_fd_sc_hd__decap_3
XFILLER_1_62 VGND VGND VPWR VPWR sky130_fd_sc_hd__decap_12
XFILLER_1_51 VGND VGND VPWR VPWR sky130_fd_sc_hd__decap_8
XFILLER_15_38 VGND VGND VPWR VPWR sky130_fd_sc_hd__decap_12
XFILLER_31_26 VGND VGND VPWR VPWR sky130_fd_sc_hd__decap_8
XPHY_110 VGND VPWR sky130_fd_sc_hd__tapvpwrvgnd_1
XFILLER_7_50 VGND VGND VPWR VPWR sky130_fd_sc_hd__decap_8
XPHY_1 VGND VGND VPWR VPWR sky130_fd_sc_hd__decap_3
XFILLER_26_15 VGND VGND VPWR VPWR sky130_fd_sc_hd__decap_12
XFILLER_27_80 VGND VGND VPWR VPWR sky130_fd_sc_hd__fill_1
XFILLER_34_15 VGND VGND VPWR VPWR sky130_fd_sc_hd__decap_12
XFILLER_18_27 VGND VGND VPWR VPWR sky130_fd_sc_hd__decap_4
X_098_ _098_/D _099_/D _050_/X _103_/CLK VGND VGND VPWR VPWR sky130_fd_sc_hd__dfrtp_4
XFILLER_29_26 VGND VGND VPWR VPWR sky130_fd_sc_hd__decap_12
XFILLER_1_74 VGND VGND VPWR VPWR sky130_fd_sc_hd__decap_6
XFILLER_35_80 VGND VGND VPWR VPWR sky130_fd_sc_hd__fill_1
XFILLER_31_38 VGND VGND VPWR VPWR sky130_fd_sc_hd__decap_8
XPHY_100 VGND VPWR sky130_fd_sc_hd__tapvpwrvgnd_1
XFILLER_21_71 VGND VGND VPWR VPWR sky130_fd_sc_hd__decap_8
XFILLER_21_60 VGND VGND VPWR VPWR sky130_fd_sc_hd__fill_1
XPHY_111 VGND VPWR sky130_fd_sc_hd__tapvpwrvgnd_1
XPHY_2 VGND VGND VPWR VPWR sky130_fd_sc_hd__decap_3
XFILLER_26_27 VGND VGND VPWR VPWR sky130_fd_sc_hd__decap_4
XFILLER_7_62 VGND VGND VPWR VPWR sky130_fd_sc_hd__decap_12
XFILLER_13_50 VGND VGND VPWR VPWR sky130_fd_sc_hd__decap_8
XFILLER_34_27 VGND VGND VPWR VPWR sky130_fd_sc_hd__decap_4
X_097_ _088_/D _098_/D _051_/X _079_/A VGND VGND VPWR VPWR sky130_fd_sc_hd__dfrtp_4
XFILLER_29_38 VGND VGND VPWR VPWR sky130_fd_sc_hd__decap_12
XFILLER_32_3 VGND VGND VPWR VPWR sky130_fd_sc_hd__decap_8
XPHY_112 VGND VPWR sky130_fd_sc_hd__tapvpwrvgnd_1
XPHY_101 VGND VPWR sky130_fd_sc_hd__tapvpwrvgnd_1
XFILLER_7_74 VGND VGND VPWR VPWR sky130_fd_sc_hd__decap_6
XPHY_3 VGND VGND VPWR VPWR sky130_fd_sc_hd__decap_3
X_096_ _082_/D _088_/D _053_/X _079_/A VGND VGND VPWR VPWR sky130_fd_sc_hd__dfrtp_4
X_079_ _079_/A _079_/B _079_/X VGND VGND VPWR VPWR sky130_fd_sc_hd__and2_4
XPHY_102 VGND VPWR sky130_fd_sc_hd__tapvpwrvgnd_1
XPHY_4 VGND VGND VPWR VPWR sky130_fd_sc_hd__decap_3
X_095_ serial_data_in _082_/D _054_/X _079_/A VGND VGND VPWR VPWR sky130_fd_sc_hd__dfrtp_4
XFILLER_24_73 VGND VGND VPWR VPWR sky130_fd_sc_hd__decap_8
X_078_ resetn _079_/B VGND VGND VPWR VPWR sky130_fd_sc_hd__inv_2
XFILLER_18_3 VGND VGND VPWR VPWR sky130_fd_sc_hd__decap_8
XPHY_103 VGND VPWR sky130_fd_sc_hd__tapvpwrvgnd_1
XPHY_5 VGND VGND VPWR VPWR sky130_fd_sc_hd__decap_3
XFILLER_27_62 VGND VGND VPWR VPWR sky130_fd_sc_hd__decap_12
XFILLER_4_55 VGND VGND VPWR VPWR sky130_fd_sc_hd__decap_12
X_094_ _103_/D pad_gpio_ana_pol _055_/X _079_/X VGND VGND VPWR VPWR sky130_fd_sc_hd__dfrtp_4
XFILLER_24_63 VGND VGND VPWR VPWR sky130_fd_sc_hd__fill_1
XFILLER_35_51 VGND VGND VPWR VPWR sky130_fd_sc_hd__decap_8
XFILLER_10_32 VGND VGND VPWR VPWR sky130_fd_sc_hd__decap_3
X_077_ _070_/Y pad_gpio_in _077_/Y VGND VGND VPWR VPWR sky130_fd_sc_hd__nand2_4
XFILLER_35_62 VGND VGND VPWR VPWR sky130_fd_sc_hd__decap_12
XPHY_104 VGND VPWR sky130_fd_sc_hd__tapvpwrvgnd_1
XPHY_6 VGND VGND VPWR VPWR sky130_fd_sc_hd__decap_3
XFILLER_30_3 VGND VGND VPWR VPWR sky130_fd_sc_hd__decap_4
XFILLER_27_74 VGND VGND VPWR VPWR sky130_fd_sc_hd__decap_6
XFILLER_4_67 VGND VGND VPWR VPWR sky130_fd_sc_hd__decap_12
XFILLER_4_23 VGND VGND VPWR VPWR sky130_fd_sc_hd__decap_8
XFILLER_8_3 VGND VGND VPWR VPWR sky130_fd_sc_hd__decap_8
X_093_ _101_/Q pad_gpio_ana_sel _056_/X _079_/X VGND VGND VPWR VPWR sky130_fd_sc_hd__dfrtp_4
XFILLER_19_53 VGND VGND VPWR VPWR sky130_fd_sc_hd__decap_8
X_076_ _070_/A _074_/X _075_/Y _070_/Y user_gpio_out pad_gpio_out VGND VGND VPWR VPWR
+ sky130_fd_sc_hd__a32o_4
XFILLER_35_74 VGND VGND VPWR VPWR sky130_fd_sc_hd__decap_6
XPHY_105 VGND VPWR sky130_fd_sc_hd__tapvpwrvgnd_1
XFILLER_21_32 VGND VGND VPWR VPWR sky130_fd_sc_hd__decap_8
XPHY_7 VGND VGND VPWR VPWR sky130_fd_sc_hd__decap_3
X_059_ _061_/A _059_/X VGND VGND VPWR VPWR sky130_fd_sc_hd__buf_2
XFILLER_16_32 VGND VGND VPWR VPWR sky130_fd_sc_hd__decap_12
XFILLER_4_79 VGND VGND VPWR VPWR sky130_fd_sc_hd__fill_2
XFILLER_13_66 VGND VGND VPWR VPWR sky130_fd_sc_hd__decap_12
X_092_ _101_/D pad_gpio_ana_en _057_/X _079_/X VGND VGND VPWR VPWR sky130_fd_sc_hd__dfrtp_4
XFILLER_10_78 VGND VGND VPWR VPWR sky130_fd_sc_hd__decap_3
Xgpio_in_buf _077_/Y gpio_in_buf/TE user_gpio_in VGND VGND VPWR VPWR sky130_fd_sc_hd__einvp_8
X_075_ pad_gpio_dm[0] _075_/B _075_/Y VGND VGND VPWR VPWR sky130_fd_sc_hd__nand2_4
XFILLER_19_65 VGND VGND VPWR VPWR sky130_fd_sc_hd__decap_12
XFILLER_21_44 VGND VGND VPWR VPWR sky130_fd_sc_hd__decap_12
XPHY_106 VGND VPWR sky130_fd_sc_hd__tapvpwrvgnd_1
X_058_ _058_/A _061_/A VGND VGND VPWR VPWR sky130_fd_sc_hd__buf_2
XFILLER_16_3 VGND VGND VPWR VPWR sky130_fd_sc_hd__decap_8
XPHY_8 VGND VGND VPWR VPWR sky130_fd_sc_hd__decap_3
XFILLER_16_44 VGND VGND VPWR VPWR sky130_fd_sc_hd__decap_12
XFILLER_16_11 VGND VGND VPWR VPWR sky130_fd_sc_hd__fill_1
XFILLER_27_21 VGND VGND VPWR VPWR sky130_fd_sc_hd__fill_1
XFILLER_13_78 VGND VGND VPWR VPWR sky130_fd_sc_hd__decap_3
X_091_ serial_data_out pad_gpio_dm[2] _059_/X _079_/X VGND VGND VPWR VPWR sky130_fd_sc_hd__dfrtp_4
XFILLER_24_55 VGND VGND VPWR VPWR sky130_fd_sc_hd__decap_8
XFILLER_1_59 VGND VGND VPWR VPWR sky130_fd_sc_hd__fill_2
XFILLER_1_15 VGND VGND VPWR VPWR sky130_fd_sc_hd__decap_12
X_074_ mgmt_gpio_out _075_/B _074_/X VGND VGND VPWR VPWR sky130_fd_sc_hd__or2_4
XFILLER_19_77 VGND VGND VPWR VPWR sky130_fd_sc_hd__decap_4
XFILLER_19_22 VGND VGND VPWR VPWR sky130_fd_sc_hd__decap_8
XFILLER_21_56 VGND VGND VPWR VPWR sky130_fd_sc_hd__decap_4
XPHY_107 VGND VPWR sky130_fd_sc_hd__tapvpwrvgnd_1
X_057_ _053_/A _057_/X VGND VGND VPWR VPWR sky130_fd_sc_hd__buf_2
XFILLER_7_58 VGND VGND VPWR VPWR sky130_fd_sc_hd__decap_3
XPHY_9 VGND VGND VPWR VPWR sky130_fd_sc_hd__decap_3
XFILLER_32_55 VGND VGND VPWR VPWR sky130_fd_sc_hd__decap_12
XFILLER_16_56 VGND VGND VPWR VPWR sky130_fd_sc_hd__decap_12
XFILLER_4_15 VGND VGND VPWR VPWR sky130_fd_sc_hd__decap_4
XFILLER_5_80 VGND VGND VPWR VPWR sky130_fd_sc_hd__fill_1
X_090_ _106_/Q pad_gpio_dm[1] _060_/X _079_/X VGND VGND VPWR VPWR sky130_fd_sc_hd__dfrtp_4
XFILLER_6_3 VGND VGND VPWR VPWR sky130_fd_sc_hd__decap_8
XFILLER_1_27 VGND VGND VPWR VPWR sky130_fd_sc_hd__decap_8
XFILLER_10_58 VGND VGND VPWR VPWR sky130_fd_sc_hd__decap_12
X_073_ mgmt_gpio_oeb _072_/Y pad_gpio_dm[1] _075_/B VGND VGND VPWR VPWR sky130_fd_sc_hd__and3_4
XFILLER_21_79 VGND VGND VPWR VPWR sky130_fd_sc_hd__fill_2
XPHY_108 VGND VPWR sky130_fd_sc_hd__tapvpwrvgnd_1
X_056_ _053_/A _056_/X VGND VGND VPWR VPWR sky130_fd_sc_hd__buf_2
XFILLER_7_26 VGND VGND VPWR VPWR sky130_fd_sc_hd__decap_12
XFILLER_32_67 VGND VGND VPWR VPWR sky130_fd_sc_hd__decap_12
XFILLER_16_68 VGND VGND VPWR VPWR sky130_fd_sc_hd__decap_12
X_039_ _079_/A resetn _064_/A VGND VGND VPWR VPWR sky130_fd_sc_hd__or2_4
XFILLER_21_3 VGND VGND VPWR VPWR sky130_fd_sc_hd__decap_6
XFILLER_27_45 VGND VGND VPWR VPWR sky130_fd_sc_hd__decap_12
XFILLER_8_80 VGND VGND VPWR VPWR sky130_fd_sc_hd__fill_1
XFILLER_13_58 VGND VGND VPWR VPWR sky130_fd_sc_hd__decap_3
XFILLER_1_39 VGND VGND VPWR VPWR sky130_fd_sc_hd__decap_12
XFILLER_10_15 VGND VGND VPWR VPWR sky130_fd_sc_hd__decap_12
X_072_ pad_gpio_dm[2] _072_/Y VGND VGND VPWR VPWR sky130_fd_sc_hd__inv_2
XPHY_109 VGND VPWR sky130_fd_sc_hd__tapvpwrvgnd_1
X_055_ _053_/A _055_/X VGND VGND VPWR VPWR sky130_fd_sc_hd__buf_2
XFILLER_7_38 VGND VGND VPWR VPWR sky130_fd_sc_hd__decap_12
XFILLER_11_80 VGND VGND VPWR VPWR sky130_fd_sc_hd__fill_1
Xclkbuf_1_1_0_serial_clock clkbuf_0_serial_clock/X _103_/CLK VGND VGND VPWR VPWR sky130_fd_sc_hd__clkbuf_1
XFILLER_32_79 VGND VGND VPWR VPWR sky130_fd_sc_hd__fill_2
XFILLER_14_3 VGND VGND VPWR VPWR sky130_fd_sc_hd__decap_4
X_107_ _106_/Q serial_data_out _081_/X _103_/CLK VGND VGND VPWR VPWR sky130_fd_sc_hd__dfrtp_4
XFILLER_27_57 VGND VGND VPWR VPWR sky130_fd_sc_hd__decap_4
XFILLER_10_27 VGND VGND VPWR VPWR sky130_fd_sc_hd__decap_4
X_071_ _088_/Q mgmt_gpio_oeb _070_/A user_gpio_oeb _070_/Y pad_gpio_outenb VGND VGND
+ VPWR VPWR sky130_fd_sc_hd__a32o_4
XFILLER_2_61 VGND VGND VPWR VPWR sky130_fd_sc_hd__decap_12
XPHY_90 VGND VPWR sky130_fd_sc_hd__tapvpwrvgnd_1
X_054_ _053_/A _054_/X VGND VGND VPWR VPWR sky130_fd_sc_hd__buf_2
X_106_ _105_/Q _106_/Q _044_/A _103_/CLK VGND VGND VPWR VPWR sky130_fd_sc_hd__dfrtp_4
XFILLER_17_80 VGND VGND VPWR VPWR sky130_fd_sc_hd__fill_1
XFILLER_13_38 VGND VGND VPWR VPWR sky130_fd_sc_hd__decap_8
XFILLER_24_15 VGND VGND VPWR VPWR sky130_fd_sc_hd__decap_12
X_070_ _070_/A _070_/Y VGND VGND VPWR VPWR sky130_fd_sc_hd__inv_2
XFILLER_19_15 VGND VGND VPWR VPWR sky130_fd_sc_hd__decap_3
XFILLER_4_3 VGND VGND VPWR VPWR sky130_fd_sc_hd__decap_12
XFILLER_2_73 VGND VGND VPWR VPWR sky130_fd_sc_hd__decap_8
XFILLER_2_40 VGND VGND VPWR VPWR sky130_fd_sc_hd__fill_2
XPHY_91 VGND VPWR sky130_fd_sc_hd__tapvpwrvgnd_1
XPHY_80 VGND VPWR sky130_fd_sc_hd__tapvpwrvgnd_1
X_053_ _053_/A _053_/X VGND VGND VPWR VPWR sky130_fd_sc_hd__buf_2
XFILLER_11_60 VGND VGND VPWR VPWR sky130_fd_sc_hd__fill_1
XFILLER_32_15 VGND VGND VPWR VPWR sky130_fd_sc_hd__decap_12
XFILLER_16_16 VGND VGND VPWR VPWR sky130_fd_sc_hd__decap_12
X_105_ _085_/D _105_/Q _042_/X _103_/CLK VGND VGND VPWR VPWR sky130_fd_sc_hd__dfrtp_4
XFILLER_27_15 VGND VGND VPWR VPWR sky130_fd_sc_hd__decap_6
XFILLER_33_80 VGND VGND VPWR VPWR sky130_fd_sc_hd__fill_1
XFILLER_28_80 VGND VGND VPWR VPWR sky130_fd_sc_hd__fill_1
XFILLER_24_27 VGND VGND VPWR VPWR sky130_fd_sc_hd__decap_4
XFILLER_5_62 VGND VGND VPWR VPWR sky130_fd_sc_hd__decap_12
XFILLER_5_51 VGND VGND VPWR VPWR sky130_fd_sc_hd__decap_8
XFILLER_35_15 VGND VGND VPWR VPWR sky130_fd_sc_hd__decap_12
XFILLER_35_59 VGND VGND VPWR VPWR sky130_fd_sc_hd__fill_2
XPHY_92 VGND VPWR sky130_fd_sc_hd__tapvpwrvgnd_1
XPHY_81 VGND VPWR sky130_fd_sc_hd__tapvpwrvgnd_1
XPHY_70 VGND VGND VPWR VPWR sky130_fd_sc_hd__decap_3
X_052_ _058_/A _053_/A VGND VGND VPWR VPWR sky130_fd_sc_hd__buf_2
XFILLER_16_28 VGND VGND VPWR VPWR sky130_fd_sc_hd__decap_3
XFILLER_32_27 VGND VGND VPWR VPWR sky130_fd_sc_hd__decap_4
X_104_ _103_/Q _085_/D _043_/X _103_/CLK VGND VGND VPWR VPWR sky130_fd_sc_hd__dfrtp_4
XFILLER_17_60 VGND VGND VPWR VPWR sky130_fd_sc_hd__fill_1
XFILLER_12_3 VGND VGND VPWR VPWR sky130_fd_sc_hd__decap_12
XFILLER_5_74 VGND VGND VPWR VPWR sky130_fd_sc_hd__decap_6
XFILLER_35_27 VGND VGND VPWR VPWR sky130_fd_sc_hd__decap_12
XPHY_93 VGND VPWR sky130_fd_sc_hd__tapvpwrvgnd_1
XPHY_82 VGND VPWR sky130_fd_sc_hd__tapvpwrvgnd_1
XPHY_71 VGND VGND VPWR VPWR sky130_fd_sc_hd__decap_3
XPHY_60 VGND VGND VPWR VPWR sky130_fd_sc_hd__decap_3
X_051_ _049_/A _051_/X VGND VGND VPWR VPWR sky130_fd_sc_hd__buf_2
XFILLER_11_62 VGND VGND VPWR VPWR sky130_fd_sc_hd__decap_12
XFILLER_11_40 VGND VGND VPWR VPWR sky130_fd_sc_hd__decap_8
X_103_ _103_/D _103_/Q _044_/X _103_/CLK VGND VGND VPWR VPWR sky130_fd_sc_hd__dfrtp_4
XFILLER_14_40 VGND VGND VPWR VPWR sky130_fd_sc_hd__decap_3
XFILLER_35_39 VGND VGND VPWR VPWR sky130_fd_sc_hd__decap_12
XPHY_94 VGND VPWR sky130_fd_sc_hd__tapvpwrvgnd_1
XPHY_83 VGND VPWR sky130_fd_sc_hd__tapvpwrvgnd_1
XPHY_72 VGND VGND VPWR VPWR sky130_fd_sc_hd__decap_3
XPHY_61 VGND VGND VPWR VPWR sky130_fd_sc_hd__decap_3
XPHY_50 VGND VGND VPWR VPWR sky130_fd_sc_hd__decap_3
XFILLER_2_32 VGND VGND VPWR VPWR sky130_fd_sc_hd__decap_8
X_050_ _049_/A _050_/X VGND VGND VPWR VPWR sky130_fd_sc_hd__buf_2
XFILLER_11_74 VGND VGND VPWR VPWR sky130_fd_sc_hd__decap_6
XFILLER_11_52 VGND VGND VPWR VPWR sky130_fd_sc_hd__decap_8
XFILLER_2_3 VGND VGND VPWR VPWR sky130_fd_sc_hd__decap_12
XFILLER_35_3 VGND VGND VPWR VPWR sky130_fd_sc_hd__decap_12
X_102_ _101_/Q _103_/D _045_/X _079_/A VGND VGND VPWR VPWR sky130_fd_sc_hd__dfrtp_4
XFILLER_22_73 VGND VGND VPWR VPWR sky130_fd_sc_hd__decap_8
XFILLER_17_62 VGND VGND VPWR VPWR sky130_fd_sc_hd__decap_12
XFILLER_33_50 VGND VGND VPWR VPWR sky130_fd_sc_hd__decap_8
Xgpio_logic_high gpio_in_buf/TE gpio_logic_high/LO VGND VGND VPWR VPWR sky130_fd_sc_hd__conb_1
XFILLER_25_62 VGND VGND VPWR VPWR sky130_fd_sc_hd__decap_8
XFILLER_25_73 VGND VGND VPWR VPWR sky130_fd_sc_hd__decap_8
XPHY_95 VGND VPWR sky130_fd_sc_hd__tapvpwrvgnd_1
XPHY_84 VGND VPWR sky130_fd_sc_hd__tapvpwrvgnd_1
XPHY_73 VGND VGND VPWR VPWR sky130_fd_sc_hd__decap_3
XPHY_62 VGND VGND VPWR VPWR sky130_fd_sc_hd__decap_3
XPHY_51 VGND VGND VPWR VPWR sky130_fd_sc_hd__decap_3
XPHY_40 VGND VGND VPWR VPWR sky130_fd_sc_hd__decap_3
XFILLER_28_3 VGND VGND VPWR VPWR sky130_fd_sc_hd__decap_12
X_101_ _101_/D _101_/Q _047_/X _079_/A VGND VGND VPWR VPWR sky130_fd_sc_hd__dfrtp_4
XFILLER_22_30 VGND VGND VPWR VPWR sky130_fd_sc_hd__fill_1
XFILLER_8_32 VGND VGND VPWR VPWR sky130_fd_sc_hd__decap_12
XFILLER_33_62 VGND VGND VPWR VPWR sky130_fd_sc_hd__decap_12
XFILLER_17_74 VGND VGND VPWR VPWR sky130_fd_sc_hd__decap_6
XFILLER_10_3 VGND VGND VPWR VPWR sky130_fd_sc_hd__decap_12
XFILLER_2_23 VGND VGND VPWR VPWR sky130_fd_sc_hd__decap_8
XPHY_96 VGND VPWR sky130_fd_sc_hd__tapvpwrvgnd_1
XPHY_85 VGND VPWR sky130_fd_sc_hd__tapvpwrvgnd_1
XPHY_74 VGND VPWR sky130_fd_sc_hd__tapvpwrvgnd_1
XPHY_63 VGND VGND VPWR VPWR sky130_fd_sc_hd__decap_3
XPHY_52 VGND VGND VPWR VPWR sky130_fd_sc_hd__decap_3
XPHY_41 VGND VGND VPWR VPWR sky130_fd_sc_hd__decap_3
XPHY_30 VGND VGND VPWR VPWR sky130_fd_sc_hd__decap_3
X_100_ _099_/Q _101_/D _048_/X _079_/A VGND VGND VPWR VPWR sky130_fd_sc_hd__dfrtp_4
XFILLER_8_44 VGND VGND VPWR VPWR sky130_fd_sc_hd__decap_12
XFILLER_33_74 VGND VGND VPWR VPWR sky130_fd_sc_hd__decap_6
XFILLER_14_32 VGND VGND VPWR VPWR sky130_fd_sc_hd__decap_8
XFILLER_25_53 VGND VGND VPWR VPWR sky130_fd_sc_hd__decap_8
XPHY_97 VGND VPWR sky130_fd_sc_hd__tapvpwrvgnd_1
XPHY_86 VGND VPWR sky130_fd_sc_hd__tapvpwrvgnd_1
XPHY_75 VGND VPWR sky130_fd_sc_hd__tapvpwrvgnd_1
XPHY_64 VGND VGND VPWR VPWR sky130_fd_sc_hd__decap_3
XPHY_53 VGND VGND VPWR VPWR sky130_fd_sc_hd__decap_3
XPHY_42 VGND VGND VPWR VPWR sky130_fd_sc_hd__decap_3
XPHY_31 VGND VGND VPWR VPWR sky130_fd_sc_hd__decap_3
XPHY_20 VGND VGND VPWR VPWR sky130_fd_sc_hd__decap_3
XFILLER_36_63 VGND VGND VPWR VPWR sky130_fd_sc_hd__decap_12
XFILLER_22_65 VGND VGND VPWR VPWR sky130_fd_sc_hd__fill_1
XFILLER_22_32 VGND VGND VPWR VPWR sky130_fd_sc_hd__fill_2
XFILLER_8_56 VGND VGND VPWR VPWR sky130_fd_sc_hd__decap_12
XFILLER_0_3 VGND VGND VPWR VPWR sky130_fd_sc_hd__decap_12
XFILLER_17_54 VGND VGND VPWR VPWR sky130_fd_sc_hd__decap_6
XFILLER_14_11 VGND VGND VPWR VPWR sky130_fd_sc_hd__decap_8
XPHY_98 VGND VPWR sky130_fd_sc_hd__tapvpwrvgnd_1
XPHY_87 VGND VPWR sky130_fd_sc_hd__tapvpwrvgnd_1
XPHY_76 VGND VPWR sky130_fd_sc_hd__tapvpwrvgnd_1
XPHY_65 VGND VGND VPWR VPWR sky130_fd_sc_hd__decap_3
XPHY_54 VGND VGND VPWR VPWR sky130_fd_sc_hd__decap_3
XPHY_43 VGND VGND VPWR VPWR sky130_fd_sc_hd__decap_3
XPHY_32 VGND VGND VPWR VPWR sky130_fd_sc_hd__decap_3
XPHY_21 VGND VGND VPWR VPWR sky130_fd_sc_hd__decap_3
XPHY_10 VGND VGND VPWR VPWR sky130_fd_sc_hd__decap_3
XFILLER_11_23 VGND VGND VPWR VPWR sky130_fd_sc_hd__fill_1
XFILLER_36_75 VGND VGND VPWR VPWR sky130_fd_sc_hd__decap_6
X_089_ _105_/Q pad_gpio_dm[0] _061_/X _079_/X VGND VGND VPWR VPWR sky130_fd_sc_hd__dfstp_4
XFILLER_26_3 VGND VGND VPWR VPWR sky130_fd_sc_hd__decap_12
XFILLER_8_68 VGND VGND VPWR VPWR sky130_fd_sc_hd__decap_12
XFILLER_28_32 VGND VGND VPWR VPWR sky130_fd_sc_hd__fill_1
Xclkbuf_1_0_0_serial_clock clkbuf_0_serial_clock/X _079_/A VGND VGND VPWR VPWR sky130_fd_sc_hd__clkbuf_1
XFILLER_30_11 VGND VGND VPWR VPWR sky130_fd_sc_hd__decap_8
XFILLER_30_55 VGND VGND VPWR VPWR sky130_fd_sc_hd__decap_12
XFILLER_14_67 VGND VGND VPWR VPWR sky130_fd_sc_hd__decap_12
XFILLER_14_23 VGND VGND VPWR VPWR sky130_fd_sc_hd__decap_8
Xclkbuf_0_serial_clock serial_clock clkbuf_0_serial_clock/X VGND VGND VPWR VPWR sky130_fd_sc_hd__clkbuf_16
XPHY_99 VGND VPWR sky130_fd_sc_hd__tapvpwrvgnd_1
XPHY_88 VGND VPWR sky130_fd_sc_hd__tapvpwrvgnd_1
XPHY_77 VGND VPWR sky130_fd_sc_hd__tapvpwrvgnd_1
XPHY_66 VGND VGND VPWR VPWR sky130_fd_sc_hd__decap_3
XPHY_55 VGND VGND VPWR VPWR sky130_fd_sc_hd__decap_3
XPHY_44 VGND VGND VPWR VPWR sky130_fd_sc_hd__decap_3
XPHY_33 VGND VGND VPWR VPWR sky130_fd_sc_hd__decap_3
XPHY_22 VGND VGND VPWR VPWR sky130_fd_sc_hd__decap_3
XPHY_11 VGND VGND VPWR VPWR sky130_fd_sc_hd__decap_3
XFILLER_2_15 VGND VGND VPWR VPWR sky130_fd_sc_hd__decap_4
XFILLER_36_32 VGND VGND VPWR VPWR sky130_fd_sc_hd__decap_12
X_088_ _088_/D _088_/Q _062_/X _079_/X VGND VGND VPWR VPWR sky130_fd_sc_hd__dfstp_4
XFILLER_19_3 VGND VGND VPWR VPWR sky130_fd_sc_hd__decap_12
XFILLER_5_15 VGND VGND VPWR VPWR sky130_fd_sc_hd__fill_1
XFILLER_5_59 VGND VGND VPWR VPWR sky130_fd_sc_hd__fill_2
XFILLER_30_23 VGND VGND VPWR VPWR sky130_fd_sc_hd__decap_8
XFILLER_30_67 VGND VGND VPWR VPWR sky130_fd_sc_hd__decap_12
XFILLER_14_79 VGND VGND VPWR VPWR sky130_fd_sc_hd__fill_2
XPHY_12 VGND VGND VPWR VPWR sky130_fd_sc_hd__decap_3
XFILLER_25_34 VGND VGND VPWR VPWR sky130_fd_sc_hd__fill_2
XFILLER_2_49 VGND VGND VPWR VPWR sky130_fd_sc_hd__decap_12
XPHY_89 VGND VPWR sky130_fd_sc_hd__tapvpwrvgnd_1
XPHY_78 VGND VPWR sky130_fd_sc_hd__tapvpwrvgnd_1
XPHY_67 VGND VGND VPWR VPWR sky130_fd_sc_hd__decap_3
XPHY_56 VGND VGND VPWR VPWR sky130_fd_sc_hd__decap_3
XPHY_45 VGND VGND VPWR VPWR sky130_fd_sc_hd__decap_3
XPHY_34 VGND VGND VPWR VPWR sky130_fd_sc_hd__decap_3
XPHY_23 VGND VGND VPWR VPWR sky130_fd_sc_hd__decap_3
XFILLER_36_44 VGND VGND VPWR VPWR sky130_fd_sc_hd__decap_12
XFILLER_22_57 VGND VGND VPWR VPWR sky130_fd_sc_hd__decap_8
XFILLER_22_24 VGND VGND VPWR VPWR sky130_fd_sc_hd__decap_6
X_087_ _099_/Q pad_gpio_ib_mode_sel _063_/X _079_/X VGND VGND VPWR VPWR sky130_fd_sc_hd__dfrtp_4
XFILLER_8_15 VGND VGND VPWR VPWR sky130_fd_sc_hd__decap_12
XFILLER_9_80 VGND VGND VPWR VPWR sky130_fd_sc_hd__fill_1
XFILLER_30_79 VGND VGND VPWR VPWR sky130_fd_sc_hd__fill_2
XPHY_79 VGND VPWR sky130_fd_sc_hd__tapvpwrvgnd_1
XPHY_68 VGND VGND VPWR VPWR sky130_fd_sc_hd__decap_3
XPHY_57 VGND VGND VPWR VPWR sky130_fd_sc_hd__decap_3
XPHY_46 VGND VGND VPWR VPWR sky130_fd_sc_hd__decap_3
XPHY_35 VGND VGND VPWR VPWR sky130_fd_sc_hd__decap_3
XPHY_24 VGND VGND VPWR VPWR sky130_fd_sc_hd__decap_3
XPHY_13 VGND VGND VPWR VPWR sky130_fd_sc_hd__decap_3
XFILLER_36_56 VGND VGND VPWR VPWR sky130_fd_sc_hd__decap_6
XFILLER_11_15 VGND VGND VPWR VPWR sky130_fd_sc_hd__decap_8
X_086_ _099_/D pad_gpio_inenb _065_/X _079_/X VGND VGND VPWR VPWR sky130_fd_sc_hd__dfrtp_4
XFILLER_8_27 VGND VGND VPWR VPWR sky130_fd_sc_hd__decap_4
X_069_ _067_/A _069_/X VGND VGND VPWR VPWR sky130_fd_sc_hd__buf_2
XFILLER_24_3 VGND VGND VPWR VPWR sky130_fd_sc_hd__decap_8
XFILLER_28_57 VGND VGND VPWR VPWR sky130_fd_sc_hd__decap_8
XFILLER_28_68 VGND VGND VPWR VPWR sky130_fd_sc_hd__decap_12
XFILLER_5_39 VGND VGND VPWR VPWR sky130_fd_sc_hd__decap_12
XFILLER_20_80 VGND VGND VPWR VPWR sky130_fd_sc_hd__fill_1
XPHY_69 VGND VGND VPWR VPWR sky130_fd_sc_hd__decap_3
XPHY_58 VGND VGND VPWR VPWR sky130_fd_sc_hd__decap_3
XPHY_47 VGND VGND VPWR VPWR sky130_fd_sc_hd__decap_3
XPHY_36 VGND VGND VPWR VPWR sky130_fd_sc_hd__decap_3
XPHY_25 VGND VGND VPWR VPWR sky130_fd_sc_hd__decap_3
XPHY_14 VGND VGND VPWR VPWR sky130_fd_sc_hd__decap_3
XFILLER_22_15 VGND VGND VPWR VPWR sky130_fd_sc_hd__decap_6
X_085_ _085_/D pad_gpio_vtrip_sel _066_/X _079_/X VGND VGND VPWR VPWR sky130_fd_sc_hd__dfrtp_4
XFILLER_33_58 VGND VGND VPWR VPWR sky130_fd_sc_hd__decap_3
XFILLER_17_26 VGND VGND VPWR VPWR sky130_fd_sc_hd__decap_8
X_068_ _067_/A _068_/X VGND VGND VPWR VPWR sky130_fd_sc_hd__buf_2
XFILLER_25_26 VGND VGND VPWR VPWR sky130_fd_sc_hd__decap_8
XPHY_59 VGND VGND VPWR VPWR sky130_fd_sc_hd__decap_3
XPHY_48 VGND VGND VPWR VPWR sky130_fd_sc_hd__decap_3
XPHY_37 VGND VGND VPWR VPWR sky130_fd_sc_hd__decap_3
XPHY_26 VGND VGND VPWR VPWR sky130_fd_sc_hd__decap_3
XPHY_15 VGND VGND VPWR VPWR sky130_fd_sc_hd__decap_3
XFILLER_31_80 VGND VGND VPWR VPWR sky130_fd_sc_hd__fill_1
XFILLER_11_28 VGND VGND VPWR VPWR sky130_fd_sc_hd__decap_8
X_084_ _103_/Q pad_gpio_slow_sel _067_/X _079_/X VGND VGND VPWR VPWR sky130_fd_sc_hd__dfrtp_4
XFILLER_12_71 VGND VGND VPWR VPWR sky130_fd_sc_hd__decap_8
XFILLER_33_26 VGND VGND VPWR VPWR sky130_fd_sc_hd__decap_12
X_067_ _067_/A _067_/X VGND VGND VPWR VPWR sky130_fd_sc_hd__buf_2
XFILLER_9_50 VGND VGND VPWR VPWR sky130_fd_sc_hd__decap_8
XFILLER_0_63 VGND VGND VPWR VPWR sky130_fd_sc_hd__decap_12
XFILLER_28_15 VGND VGND VPWR VPWR sky130_fd_sc_hd__decap_12
XFILLER_34_80 VGND VGND VPWR VPWR sky130_fd_sc_hd__fill_1
XFILLER_29_80 VGND VGND VPWR VPWR sky130_fd_sc_hd__fill_1
XPHY_49 VGND VGND VPWR VPWR sky130_fd_sc_hd__decap_3
XPHY_38 VGND VGND VPWR VPWR sky130_fd_sc_hd__decap_3
XPHY_27 VGND VGND VPWR VPWR sky130_fd_sc_hd__decap_3
XPHY_16 VGND VGND VPWR VPWR sky130_fd_sc_hd__decap_3
XFILLER_36_15 VGND VGND VPWR VPWR sky130_fd_sc_hd__decap_12
X_083_ _098_/D pad_gpio_holdover _068_/X _079_/X VGND VGND VPWR VPWR sky130_fd_sc_hd__dfrtp_4
XFILLER_33_38 VGND VGND VPWR VPWR sky130_fd_sc_hd__decap_12
X_066_ _067_/A _066_/X VGND VGND VPWR VPWR sky130_fd_sc_hd__buf_2
XFILLER_23_71 VGND VGND VPWR VPWR sky130_fd_sc_hd__decap_8
XFILLER_9_62 VGND VGND VPWR VPWR sky130_fd_sc_hd__decap_12
XFILLER_0_75 VGND VGND VPWR VPWR sky130_fd_sc_hd__decap_6
XFILLER_28_27 VGND VGND VPWR VPWR sky130_fd_sc_hd__decap_4
X_049_ _049_/A _049_/X VGND VGND VPWR VPWR sky130_fd_sc_hd__buf_2
XFILLER_18_71 VGND VGND VPWR VPWR sky130_fd_sc_hd__decap_8
XFILLER_22_3 VGND VGND VPWR VPWR sky130_fd_sc_hd__decap_12
XPHY_28 VGND VGND VPWR VPWR sky130_fd_sc_hd__decap_3
XPHY_17 VGND VGND VPWR VPWR sky130_fd_sc_hd__decap_3
XFILLER_15_50 VGND VGND VPWR VPWR sky130_fd_sc_hd__decap_8
XPHY_39 VGND VGND VPWR VPWR sky130_fd_sc_hd__decap_3
XFILLER_36_27 VGND VGND VPWR VPWR sky130_fd_sc_hd__decap_4
X_082_ _082_/D _070_/A _069_/X _079_/X VGND VGND VPWR VPWR sky130_fd_sc_hd__dfstp_4
X_065_ _067_/A _065_/X VGND VGND VPWR VPWR sky130_fd_sc_hd__buf_2
XFILLER_0_32 VGND VGND VPWR VPWR sky130_fd_sc_hd__decap_12
XFILLER_9_74 VGND VGND VPWR VPWR sky130_fd_sc_hd__decap_6
X_048_ _049_/A _048_/X VGND VGND VPWR VPWR sky130_fd_sc_hd__buf_2
XPHY_29 VGND VGND VPWR VPWR sky130_fd_sc_hd__decap_3
XPHY_18 VGND VGND VPWR VPWR sky130_fd_sc_hd__decap_3
XFILLER_31_50 VGND VGND VPWR VPWR sky130_fd_sc_hd__decap_8
XFILLER_15_73 VGND VGND VPWR VPWR sky130_fd_sc_hd__decap_8
XFILLER_15_62 VGND VGND VPWR VPWR sky130_fd_sc_hd__decap_4
XFILLER_3_65 VGND VGND VPWR VPWR sky130_fd_sc_hd__decap_12
X_081_ _058_/A _081_/X VGND VGND VPWR VPWR sky130_fd_sc_hd__buf_2
X_064_ _064_/A _067_/A VGND VGND VPWR VPWR sky130_fd_sc_hd__buf_2
XFILLER_0_44 VGND VGND VPWR VPWR sky130_fd_sc_hd__decap_12
XFILLER_18_40 VGND VGND VPWR VPWR sky130_fd_sc_hd__decap_3
X_047_ _049_/A _047_/X VGND VGND VPWR VPWR sky130_fd_sc_hd__buf_2
XFILLER_29_50 VGND VGND VPWR VPWR sky130_fd_sc_hd__decap_8
XPHY_19 VGND VGND VPWR VPWR sky130_fd_sc_hd__decap_3
XFILLER_31_62 VGND VGND VPWR VPWR sky130_fd_sc_hd__decap_12
XFILLER_26_40 VGND VGND VPWR VPWR sky130_fd_sc_hd__decap_3
XFILLER_26_73 VGND VGND VPWR VPWR sky130_fd_sc_hd__decap_8
XFILLER_3_77 VGND VGND VPWR VPWR sky130_fd_sc_hd__decap_4
X_080_ _070_/A pad_gpio_in mgmt_gpio_in VGND VGND VPWR VPWR sky130_fd_sc_hd__and2_4
XFILLER_5_3 VGND VGND VPWR VPWR sky130_fd_sc_hd__decap_12