* SPICE NETLIST
***************************************


***************************************
.SUBCKT sky130_ef_io__gpiov2_pad_wrapped__sky130_fd_pr__nfet_01v8__example_55959141808592 1 2 3 4
**
XM0 4 2 3 1 sky130_fd_pr__nfet_g5v0d10v5 L=0.5 W=0.42 AD=0.1176 AS=0.1176 PD=1.4 PS=1.4 NRD=0 NRS=0 m=1 sa=250000 sb=250000 a=0.21 p=1.84
.ENDS
***************************************
***************************************
.SUBCKT sky130_ef_io__gpiov2_pad_wrapped__sky130_fd_pr__nfet_01v8__example_55959141808593 1 2 3 4
**
XM0 4 2 3 1 sky130_fd_pr__nfet_g5v0d10v5 L=0.5 W=3 AD=0.84 AS=0.84 PD=6.56 PS=6.56 NRD=0 NRS=0 m=1 sa=250000 sb=250000 a=1.5 p=7
.ENDS
***************************************
***************************************
***************************************
.SUBCKT sky130_ef_io__gpiov2_pad_wrapped__sky130_fd_io__res75only_small PAD ROUT
**
R0 PAD ROUT sky130_fd_pr__res_generic_po L=3.15 W=2 m=1
.ENDS
***************************************
***************************************
***************************************
***************************************
***************************************
.SUBCKT sky130_ef_io__gpiov2_pad_wrapped__sky130_fd_pr__nfet_01v8__example_55959141808560 1 2 3 4 5
**
XM0 5 2 3 1 sky130_fd_pr__nfet_g5v0d10v5 L=0.5 W=7 AD=0.98 AS=2.205 PD=7.28 PS=14.63 NRD=0 NRS=0.5586 m=1 sa=250000 sb=250005 a=3.5 p=15
XM1 3 2 5 1 sky130_fd_pr__nfet_g5v0d10v5 L=0.5 W=7 AD=1.225 AS=0.98 PD=7.35 PS=7.28 NRD=0.5586 NRS=0 m=1 sa=250001 sb=250004 a=3.5 p=15
XM2 5 2 3 1 sky130_fd_pr__nfet_g5v0d10v5 L=0.5 W=7 AD=0.98 AS=1.225 PD=7.28 PS=7.35 NRD=0 NRS=0.5586 m=1 sa=250002 sb=250003 a=3.5 p=15
XM3 4 2 5 1 sky130_fd_pr__nfet_g5v0d10v5 L=0.5 W=7 AD=1.225 AS=0.98 PD=7.35 PS=7.28 NRD=0.5586 NRS=0 m=1 sa=250002 sb=250003 a=3.5 p=15
XM4 5 2 4 1 sky130_fd_pr__nfet_g5v0d10v5 L=0.5 W=7 AD=0.98 AS=1.225 PD=7.28 PS=7.35 NRD=0 NRS=0.5586 m=1 sa=250003 sb=250002 a=3.5 p=15
XM5 4 2 5 1 sky130_fd_pr__nfet_g5v0d10v5 L=0.5 W=7 AD=1.225 AS=0.98 PD=7.35 PS=7.28 NRD=0.5586 NRS=0 m=1 sa=250004 sb=250001 a=3.5 p=15
XM6 5 2 4 1 sky130_fd_pr__nfet_g5v0d10v5 L=0.5 W=7 AD=1.96 AS=1.225 PD=14.56 PS=7.35 NRD=0 NRS=0.5586 m=1 sa=250005 sb=250000 a=3.5 p=15
.ENDS
***************************************
***************************************
***************************************
.SUBCKT sky130_ef_io__gpiov2_pad_wrapped__sky130_fd_io__amux_switch_1v2b VSSD 3 6 VDDIO VDDA PG_PAD_VDDIOQ_H_N PG_AMX_VDDA_H_N NG_AMX_VPMP_H NG_PAD_VPMP_H PAD_HV_P0 PAD_HV_P1 AMUXBUS_HV PAD_HV_N2 PAD_HV_N3 PAD_HV_N0 PAD_HV_N1
**
*.SEEDPROM
XM0 PAD_HV_N2 NG_PAD_VPMP_H 6 6 sky130_fd_pr__nfet_g5v0d10v5 L=0.5 W=7 AD=0.98 AS=2.205 PD=7.28 PS=14.63 NRD=0 NRS=0.5586 m=1 sa=250000 sb=250006 a=3.5 p=15
XM1 6 NG_PAD_VPMP_H PAD_HV_N2 6 sky130_fd_pr__nfet_g5v0d10v5 L=0.5 W=7 AD=1.225 AS=0.98 PD=7.35 PS=7.28 NRD=0.5586 NRS=0 m=1 sa=250001 sb=250005 a=3.5 p=15
XM2 PAD_HV_N2 NG_PAD_VPMP_H 6 6 sky130_fd_pr__nfet_g5v0d10v5 L=0.5 W=7 AD=0.98 AS=1.225 PD=7.28 PS=7.35 NRD=0 NRS=0.5586 m=1 sa=250002 sb=250004 a=3.5 p=15
XM3 6 NG_PAD_VPMP_H PAD_HV_N2 6 sky130_fd_pr__nfet_g5v0d10v5 L=0.5 W=7 AD=1.225 AS=0.98 PD=7.35 PS=7.28 NRD=0.5586 NRS=0 m=1 sa=250002 sb=250003 a=3.5 p=15
XM4 PAD_HV_N3 NG_PAD_VPMP_H 6 6 sky130_fd_pr__nfet_g5v0d10v5 L=0.5 W=7 AD=0.98 AS=1.225 PD=7.28 PS=7.35 NRD=0 NRS=0.5586 m=1 sa=250003 sb=250002 a=3.5 p=15
XM5 6 NG_PAD_VPMP_H PAD_HV_N3 6 sky130_fd_pr__nfet_g5v0d10v5 L=0.5 W=7 AD=1.225 AS=0.98 PD=7.35 PS=7.28 NRD=0.5586 NRS=0 m=1 sa=250004 sb=250002 a=3.5 p=15
XM6 PAD_HV_N3 NG_PAD_VPMP_H 6 6 sky130_fd_pr__nfet_g5v0d10v5 L=0.5 W=7 AD=0.98 AS=1.225 PD=7.28 PS=7.35 NRD=0 NRS=0.5586 m=1 sa=250005 sb=250001 a=3.5 p=15
XM7 6 NG_PAD_VPMP_H PAD_HV_N3 6 sky130_fd_pr__nfet_g5v0d10v5 L=0.5 W=7 AD=2.205 AS=0.98 PD=14.63 PS=7.28 NRD=0.5586 NRS=0 m=1 sa=250006 sb=250000 a=3.5 p=15
XM8 3 PG_PAD_VDDIOQ_H_N PAD_HV_P0 VDDIO sky130_fd_pr__pfet_g5v0d10v5 L=0.5 W=7 AD=0.98 AS=2.205 PD=7.28 PS=14.63 NRD=0 NRS=0.9359 m=1 sa=250000 sb=250004 a=3.5 p=15
XM9 PAD_HV_P0 PG_PAD_VDDIOQ_H_N 3 VDDIO sky130_fd_pr__pfet_g5v0d10v5 L=0.5 W=7 AD=1.225 AS=0.98 PD=7.35 PS=7.28 NRD=0.9359 NRS=0 m=1 sa=250001 sb=250003 a=3.5 p=15
XM10 3 PG_PAD_VDDIOQ_H_N PAD_HV_P0 VDDIO sky130_fd_pr__pfet_g5v0d10v5 L=0.5 W=7 AD=0.98 AS=1.225 PD=7.28 PS=7.35 NRD=0 NRS=0.9359 m=1 sa=250002 sb=250002 a=3.5 p=15
XM11 PAD_HV_P1 PG_PAD_VDDIOQ_H_N 3 VDDIO sky130_fd_pr__pfet_g5v0d10v5 L=0.5 W=7 AD=1.225 AS=0.98 PD=7.35 PS=7.28 NRD=0.9359 NRS=0 m=1 sa=250002 sb=250002 a=3.5 p=15
XM12 3 PG_PAD_VDDIOQ_H_N PAD_HV_P1 VDDIO sky130_fd_pr__pfet_g5v0d10v5 L=0.5 W=7 AD=0.98 AS=1.225 PD=7.28 PS=7.35 NRD=0 NRS=0.9359 m=1 sa=250003 sb=250001 a=3.5 p=15
XM13 PAD_HV_P1 PG_PAD_VDDIOQ_H_N 3 VDDIO sky130_fd_pr__pfet_g5v0d10v5 L=0.5 W=7 AD=2.205 AS=0.98 PD=14.63 PS=7.28 NRD=0.9359 NRS=0 m=1 sa=250004 sb=250000 a=3.5 p=15
XM14 3 PG_AMX_VDDA_H_N AMUXBUS_HV VDDA sky130_fd_pr__pfet_g5v0d10v5 L=0.5 W=7 AD=1.225 AS=1.96 PD=7.35 PS=14.56 NRD=0.9359 NRS=0 m=1 sa=250000 sb=250003 a=3.5 p=15
XM15 AMUXBUS_HV PG_AMX_VDDA_H_N 3 VDDA sky130_fd_pr__pfet_g5v0d10v5 L=0.5 W=7 AD=0.98 AS=1.225 PD=7.28 PS=7.35 NRD=0 NRS=0.9359 m=1 sa=250001 sb=250002 a=3.5 p=15
XM16 3 PG_AMX_VDDA_H_N AMUXBUS_HV VDDA sky130_fd_pr__pfet_g5v0d10v5 L=0.5 W=7 AD=1.225 AS=0.98 PD=7.35 PS=7.28 NRD=0.9359 NRS=0 m=1 sa=250002 sb=250002 a=3.5 p=15
XM17 AMUXBUS_HV PG_AMX_VDDA_H_N 3 VDDA sky130_fd_pr__pfet_g5v0d10v5 L=0.5 W=7 AD=0.98 AS=1.225 PD=7.28 PS=7.35 NRD=0 NRS=0.9359 m=1 sa=250003 sb=250001 a=3.5 p=15
XM18 3 PG_AMX_VDDA_H_N AMUXBUS_HV VDDA sky130_fd_pr__pfet_g5v0d10v5 L=0.5 W=7 AD=2.205 AS=0.98 PD=14.63 PS=7.28 NRD=0.9359 NRS=0 m=1 sa=250003 sb=250000 a=3.5 p=15
X19 3 VDDA condiode a=1e-06 p=0.004 m=1
X20 6 VDDA condiode a=1e-06 p=0.004 m=1
X21 VSSD VDDIO sky130_fd_pr__model__parasitic__diode_ps2nw a=64.774 p=32.54 m=1
X22 VSSD VDDA sky130_fd_pr__model__parasitic__diode_ps2nw a=66.495 p=33.14 m=1
X23 3 VDDA sky130_fd_pr__model__parasitic__diode_pw2dn a=141.419 p=48.37 m=1
X24 6 VDDA sky130_fd_pr__model__parasitic__diode_pw2dn a=144.747 p=49.61 m=1
X30 3 NG_AMX_VPMP_H AMUXBUS_HV AMUXBUS_HV 3 sky130_ef_io__gpiov2_pad_wrapped__sky130_fd_pr__nfet_01v8__example_55959141808560
X31 3 NG_PAD_VPMP_H PAD_HV_N0 PAD_HV_N1 3 sky130_ef_io__gpiov2_pad_wrapped__sky130_fd_pr__nfet_01v8__example_55959141808560
X32 6 NG_AMX_VPMP_H 6 6 AMUXBUS_HV sky130_ef_io__gpiov2_pad_wrapped__sky130_fd_pr__nfet_01v8__example_55959141808560
.ENDS
***************************************
***************************************
***************************************
***************************************
***************************************
***************************************
***************************************
.SUBCKT sky130_ef_io__gpiov2_pad_wrapped__sky130_fd_io__gpiov2_amux_drvr_ls VGND VPWR_HV IN_B RST_H IN HLD_H_N OUT_H VPWR_LV OUT_H_N 10 11
**
XM0 10 IN_B VGND VGND sky130_fd_pr__nfet_01v8_lvt L=0.15 W=1 AD=0.14 AS=0.265 PD=1.28 PS=2.53 NRD=0 NRS=0 m=1 sa=75000.2 sb=75001.5 a=0.15 p=2.3
XM1 VGND IN_B 10 VGND sky130_fd_pr__nfet_01v8_lvt L=0.15 W=1 AD=0.14 AS=0.14 PD=1.28 PS=1.28 NRD=0 NRS=0 m=1 sa=75000.6 sb=75001 a=0.15 p=2.3
XM2 11 IN VGND VGND sky130_fd_pr__nfet_01v8_lvt L=0.15 W=1 AD=0.14 AS=0.14 PD=1.28 PS=1.28 NRD=0 NRS=0 m=1 sa=75001 sb=75000.6 a=0.15 p=2.3
XM3 VGND IN 11 VGND sky130_fd_pr__nfet_01v8_lvt L=0.15 W=1 AD=0.265 AS=0.14 PD=2.53 PS=1.28 NRD=0 NRS=0 m=1 sa=75001.5 sb=75000.2 a=0.15 p=2.3
XM4 VGND RST_H OUT_H VGND sky130_fd_pr__nfet_g5v0d10v5 L=0.5 W=1.5 AD=0.21 AS=0.3975 PD=1.78 PS=3.53 NRD=0 NRS=0 m=1 sa=250000 sb=250002 a=0.75 p=4
XM5 OUT_H RST_H VGND VGND sky130_fd_pr__nfet_g5v0d10v5 L=0.5 W=1.5 AD=0.21 AS=0.21 PD=1.78 PS=1.78 NRD=0 NRS=0 m=1 sa=250001 sb=250002 a=0.75 p=4
XM6 19 HLD_H_N OUT_H VGND sky130_fd_pr__nfet_g5v0d10v5 L=0.5 W=1.5 AD=0.21 AS=0.21 PD=1.78 PS=1.78 NRD=0 NRS=0 m=1 sa=250002 sb=250001 a=0.75 p=4
XM7 OUT_H HLD_H_N 19 VGND sky130_fd_pr__nfet_g5v0d10v5 L=0.5 W=1.5 AD=0.3975 AS=0.21 PD=3.53 PS=1.78 NRD=0 NRS=0 m=1 sa=250002 sb=250000 a=0.75 p=4
XM8 OUT_H_N HLD_H_N 18 VGND sky130_fd_pr__nfet_g5v0d10v5 L=0.5 W=1.5 AD=0.21 AS=0.3975 PD=1.78 PS=3.53 NRD=0 NRS=0 m=1 sa=250000 sb=250001 a=0.75 p=4
XM9 18 HLD_H_N OUT_H_N VGND sky130_fd_pr__nfet_g5v0d10v5 L=0.5 W=1.5 AD=0.3975 AS=0.21 PD=3.53 PS=1.78 NRD=0 NRS=0 m=1 sa=250001 sb=250000 a=0.75 p=4
XM10 19 VPWR_LV 10 VGND sky130_fd_pr__nfet_05v0_nvt L=0.9 W=1 AD=0.14 AS=0.265 PD=1.28 PS=2.53 NRD=0 NRS=0 m=1 sa=450000 sb=450001 a=0.9 p=3.8
XM11 10 VPWR_LV 19 VGND sky130_fd_pr__nfet_05v0_nvt L=0.9 W=1 AD=0.265 AS=0.14 PD=2.53 PS=1.28 NRD=0 NRS=0 m=1 sa=450001 sb=450000 a=0.9 p=3.8
XM12 11 VPWR_LV 18 VGND sky130_fd_pr__nfet_05v0_nvt L=0.9 W=1 AD=0.14 AS=0.265 PD=1.28 PS=2.53 NRD=0 NRS=0 m=1 sa=450000 sb=450001 a=0.9 p=3.8
XM13 18 VPWR_LV 11 VGND sky130_fd_pr__nfet_05v0_nvt L=0.9 W=1 AD=0.265 AS=0.14 PD=2.53 PS=1.28 NRD=0 NRS=0 m=1 sa=450001 sb=450000 a=0.9 p=3.8
XM14 VPWR_HV OUT_H OUT_H_N VPWR_HV sky130_fd_pr__pfet_g5v0d10v5 L=0.6 W=0.7 AD=0.098 AS=0.1855 PD=0.98 PS=1.93 NRD=0 NRS=0 m=1 sa=300000 sb=300001 a=0.42 p=2.6
XM15 OUT_H OUT_H_N VPWR_HV VPWR_HV sky130_fd_pr__pfet_g5v0d10v5 L=0.6 W=0.7 AD=0.1855 AS=0.098 PD=1.93 PS=0.98 NRD=0 NRS=0 m=1 sa=300001 sb=300000 a=0.42 p=2.6
.ENDS
***************************************
***************************************
***************************************
***************************************
***************************************
***************************************
***************************************
***************************************
***************************************
***************************************
***************************************
***************************************
***************************************
***************************************
***************************************
.SUBCKT sky130_ef_io__gpiov2_pad_wrapped__sky130_fd_pr__nfet_01v8__example_55959141808568 2 3 4
**
*.SEEDPROM
XM0 4 3 2 2 sky130_fd_pr__nfet_g5v0d10v5 L=0.5 W=3 AD=0.795 AS=0.795 PD=6.53 PS=6.53 NRD=0 NRS=0 m=1 sa=250000 sb=250000 a=1.5 p=7
.ENDS
***************************************
***************************************
***************************************
.SUBCKT sky130_ef_io__gpiov2_pad_wrapped__sky130_fd_pr__pfet_01v8__example_55959141808567 2 3 4
**
*.SEEDPROM
XM0 4 3 2 2 sky130_fd_pr__pfet_g5v0d10v5 L=0.5 W=1 AD=0.14 AS=0.265 PD=1.28 PS=2.53 NRD=0 NRS=0 m=1 sa=250000 sb=250001 a=0.5 p=3
XM1 2 3 4 2 sky130_fd_pr__pfet_g5v0d10v5 L=0.5 W=1 AD=0.265 AS=0.14 PD=2.53 PS=1.28 NRD=0 NRS=0 m=1 sa=250001 sb=250000 a=0.5 p=3
.ENDS
***************************************
.SUBCKT sky130_ef_io__gpiov2_pad_wrapped__sky130_fd_io__gpiov2_amux_drvr VSSD VSSA VDDA VSWITCH VCCD VDDIO_Q 9 10 11 12 13 14 AMUX_EN_VDDA_H_N 16 AMUX_EN_VDDA_H 18 AMUX_EN_VDDIO_H_N 20 21 PD_CSD_VSWITCH_H PU_CSD_VDDIOQ_H_N PGA_AMX_VDDA_H_N PGB_AMX_VDDA_H_N PD_CSD_VSWITCH_H_N NGA_PAD_VSWITCH_H NGA_PAD_VSWITCH_H_N AMUX_EN_VSWITCH_H NGA_AMX_VSWITCH_H NGB_AMX_VSWITCH_H NGB_PAD_VSWITCH_H NGB_PAD_VSWITCH_H_N D_B 35 36 NMIDA_ON_N NMIDA_VCCD NMIDA_VCCD_N AMUX_EN_VDDIO_H 41 42 43 44 45 46 47 PGA_PAD_VDDIOQ_H_N PGB_PAD_VDDIOQ_H_N AMUXBUSA_ON_N AMUX_EN_VSWITCH_H_N AMUXBUSB_ON_N AMUXBUSA_ON AMUXBUSB_ON PU_ON_N PU_ON PD_ON_N PD_ON
**
*.SEEDPROM
XM0 VSSA PD_CSD_VSWITCH_H PD_CSD_VSWITCH_H_N VSSA sky130_fd_pr__nfet_g5v0d10v5 L=0.5 W=0.75 AD=0.105 AS=0.19875 PD=1.03 PS=2.03 NRD=0 NRS=0 m=1 sa=250000 sb=250001 a=0.375 p=2.5
XM1 NGA_PAD_VSWITCH_H_N NGA_PAD_VSWITCH_H VSSA VSSA sky130_fd_pr__nfet_g5v0d10v5 L=0.5 W=0.75 AD=0.19875 AS=0.105 PD=2.03 PS=1.03 NRD=0 NRS=0 m=1 sa=250001 sb=250000 a=0.375 p=2.5
XM2 PD_CSD_VSWITCH_H 13 VSSA VSSA sky130_fd_pr__nfet_g5v0d10v5 L=0.5 W=1.5 AD=0.21 AS=0.3975 PD=1.78 PS=3.53 NRD=0 NRS=0 m=1 sa=250000 sb=250001 a=0.75 p=4
XM3 VSSA VSSA PD_CSD_VSWITCH_H VSSA sky130_fd_pr__nfet_g5v0d10v5 L=0.5 W=1.5 AD=0.3975 AS=0.21 PD=3.53 PS=1.78 NRD=0 NRS=0 m=1 sa=250001 sb=250000 a=0.75 p=4
XM4 69 14 9 VSSA sky130_fd_pr__nfet_g5v0d10v5 L=0.5 W=3 AD=0.42 AS=0.795 PD=3.28 PS=6.53 NRD=0 NRS=0 m=1 sa=250000 sb=250004 a=1.5 p=7
XM5 9 14 69 VSSA sky130_fd_pr__nfet_g5v0d10v5 L=0.5 W=3 AD=0.42 AS=0.42 PD=3.28 PS=3.28 NRD=0 NRS=0 m=1 sa=250001 sb=250003 a=1.5 p=7
XM6 VSSA 9 PGA_AMX_VDDA_H_N VSSA sky130_fd_pr__nfet_g5v0d10v5 L=0.5 W=1 AD=0.14 AS=0.265 PD=1.28 PS=2.53 NRD=0 NRS=0 m=1 sa=250000 sb=250001 a=0.5 p=3
XM7 69 14 9 VSSA sky130_fd_pr__nfet_g5v0d10v5 L=0.5 W=3 AD=0.42 AS=0.42 PD=3.28 PS=3.28 NRD=0 NRS=0 m=1 sa=250002 sb=250002 a=1.5 p=7
XM8 9 AMUX_EN_VDDA_H_N VSSA VSSA sky130_fd_pr__nfet_g5v0d10v5 L=0.5 W=1 AD=0.265 AS=0.14 PD=2.53 PS=1.28 NRD=0 NRS=0 m=1 sa=250001 sb=250000 a=0.5 p=3
XM9 11 16 69 VSSA sky130_fd_pr__nfet_g5v0d10v5 L=0.5 W=3 AD=0.42 AS=0.42 PD=3.28 PS=3.28 NRD=0 NRS=0 m=1 sa=250002 sb=250002 a=1.5 p=7
XM10 NGA_AMX_VSWITCH_H 41 VSSA VSSA sky130_fd_pr__nfet_g5v0d10v5 L=0.6 W=0.42 AD=0.0588 AS=0.1113 PD=0.7 PS=1.37 NRD=0 NRS=0 m=1 sa=300000 sb=300006 a=0.252 p=2.04
XM11 69 16 11 VSSA sky130_fd_pr__nfet_g5v0d10v5 L=0.5 W=3 AD=0.42 AS=0.42 PD=3.28 PS=3.28 NRD=0 NRS=0 m=1 sa=250003 sb=250001 a=1.5 p=7
XM12 VSSA AMUX_EN_VDDA_H_N NGA_AMX_VSWITCH_H VSSA sky130_fd_pr__nfet_g5v0d10v5 L=0.5 W=1 AD=0.14 AS=0.265 PD=1.28 PS=2.53 NRD=0 NRS=0 m=1 sa=250000 sb=250001 a=0.5 p=3
XM13 VSSA 41 NGA_AMX_VSWITCH_H VSSA sky130_fd_pr__nfet_g5v0d10v5 L=0.6 W=0.42 AD=0.0588 AS=0.0588 PD=0.7 PS=0.7 NRD=0 NRS=0 m=1 sa=300001 sb=300005 a=0.252 p=2.04
XM14 11 16 69 VSSA sky130_fd_pr__nfet_g5v0d10v5 L=0.5 W=3 AD=0.795 AS=0.42 PD=6.53 PS=3.28 NRD=0 NRS=0 m=1 sa=250004 sb=250000 a=1.5 p=7
XM15 NGB_AMX_VSWITCH_H AMUX_EN_VDDA_H_N VSSA VSSA sky130_fd_pr__nfet_g5v0d10v5 L=0.5 W=1 AD=0.265 AS=0.14 PD=2.53 PS=1.28 NRD=0 NRS=0 m=1 sa=250001 sb=250000 a=0.5 p=3
XM16 NGB_AMX_VSWITCH_H 43 VSSA VSSA sky130_fd_pr__nfet_g5v0d10v5 L=0.6 W=0.42 AD=0.0588 AS=0.0588 PD=0.7 PS=0.7 NRD=0 NRS=0 m=1 sa=300002 sb=300004 a=0.252 p=2.04
XM17 VSSA 43 NGB_AMX_VSWITCH_H VSSA sky130_fd_pr__nfet_g5v0d10v5 L=0.6 W=0.42 AD=0.0588 AS=0.0588 PD=0.7 PS=0.7 NRD=0 NRS=0 m=1 sa=300003 sb=300003 a=0.252 p=2.04
XM18 NGB_PAD_VSWITCH_H 43 VSSA VSSA sky130_fd_pr__nfet_g5v0d10v5 L=0.6 W=0.42 AD=0.0588 AS=0.0588 PD=0.7 PS=0.7 NRD=0 NRS=0 m=1 sa=300003 sb=300003 a=0.252 p=2.04
XM19 VSSA AMUX_EN_VDDIO_H_N NGB_PAD_VSWITCH_H VSSA sky130_fd_pr__nfet_g5v0d10v5 L=0.5 W=1 AD=0.14 AS=0.265 PD=1.28 PS=2.53 NRD=0 NRS=0 m=1 sa=250000 sb=250001 a=0.5 p=3
XM20 VSSA 43 NGB_PAD_VSWITCH_H VSSA sky130_fd_pr__nfet_g5v0d10v5 L=0.6 W=0.42 AD=0.0588 AS=0.0588 PD=0.7 PS=0.7 NRD=0 NRS=0 m=1 sa=300004 sb=300002 a=0.252 p=2.04
XM21 NGA_PAD_VSWITCH_H AMUX_EN_VDDIO_H_N VSSA VSSA sky130_fd_pr__nfet_g5v0d10v5 L=0.5 W=1 AD=0.265 AS=0.14 PD=2.53 PS=1.28 NRD=0 NRS=0 m=1 sa=250001 sb=250000 a=0.5 p=3
XM22 NGA_PAD_VSWITCH_H 41 VSSA VSSA sky130_fd_pr__nfet_g5v0d10v5 L=0.6 W=0.42 AD=0.0588 AS=0.0588 PD=0.7 PS=0.7 NRD=0 NRS=0 m=1 sa=300005 sb=300001 a=0.252 p=2.04
XM23 70 18 12 VSSA sky130_fd_pr__nfet_g5v0d10v5 L=0.5 W=3 AD=0.42 AS=0.795 PD=3.28 PS=6.53 NRD=0 NRS=0 m=1 sa=250000 sb=250004 a=1.5 p=7
XM24 VSSA 41 NGA_PAD_VSWITCH_H VSSA sky130_fd_pr__nfet_g5v0d10v5 L=0.6 W=0.42 AD=0.1113 AS=0.0588 PD=1.37 PS=0.7 NRD=0 NRS=0 m=1 sa=300006 sb=300000 a=0.252 p=2.04
XM25 12 18 70 VSSA sky130_fd_pr__nfet_g5v0d10v5 L=0.5 W=3 AD=0.42 AS=0.42 PD=3.28 PS=3.28 NRD=0 NRS=0 m=1 sa=250001 sb=250003 a=1.5 p=7
XM26 PD_CSD_VSWITCH_H AMUX_EN_VDDIO_H_N VSSA VSSA sky130_fd_pr__nfet_g5v0d10v5 L=0.5 W=1 AD=0.265 AS=0.265 PD=2.53 PS=2.53 NRD=0 NRS=0 m=1 sa=250000 sb=250000 a=0.5 p=3
XM27 70 18 12 VSSA sky130_fd_pr__nfet_g5v0d10v5 L=0.5 W=3 AD=0.42 AS=0.42 PD=3.28 PS=3.28 NRD=0 NRS=0 m=1 sa=250002 sb=250002 a=1.5 p=7
XM28 VSSA AMUX_EN_VDDA_H_N 10 VSSA sky130_fd_pr__nfet_g5v0d10v5 L=0.5 W=1 AD=0.14 AS=0.265 PD=1.28 PS=2.53 NRD=0 NRS=0 m=1 sa=250000 sb=250001 a=0.5 p=3
XM29 10 20 70 VSSA sky130_fd_pr__nfet_g5v0d10v5 L=0.5 W=3 AD=0.42 AS=0.42 PD=3.28 PS=3.28 NRD=0 NRS=0 m=1 sa=250002 sb=250002 a=1.5 p=7
XM30 PGB_AMX_VDDA_H_N 10 VSSA VSSA sky130_fd_pr__nfet_g5v0d10v5 L=0.5 W=1 AD=0.265 AS=0.14 PD=2.53 PS=1.28 NRD=0 NRS=0 m=1 sa=250001 sb=250000 a=0.5 p=3
XM31 NGB_PAD_VSWITCH_H_N NGB_PAD_VSWITCH_H VSSA VSSA sky130_fd_pr__nfet_g5v0d10v5 L=0.5 W=0.75 AD=0.19875 AS=0.19875 PD=2.03 PS=2.03 NRD=0 NRS=0 m=1 sa=250000 sb=250000 a=0.375 p=2.5
XM32 70 20 10 VSSA sky130_fd_pr__nfet_g5v0d10v5 L=0.5 W=3 AD=0.42 AS=0.42 PD=3.28 PS=3.28 NRD=0 NRS=0 m=1 sa=250003 sb=250001 a=1.5 p=7
XM33 10 20 70 VSSA sky130_fd_pr__nfet_g5v0d10v5 L=0.5 W=3 AD=0.795 AS=0.42 PD=6.53 PS=3.28 NRD=0 NRS=0 m=1 sa=250004 sb=250000 a=1.5 p=7
XM34 VSSD 35 D_B VSSD sky130_fd_pr__nfet_g5v0d10v5 L=0.6 W=0.7 AD=0.098 AS=0.1855 PD=0.98 PS=1.93 NRD=0 NRS=0 m=1 sa=300000 sb=300004 a=0.42 p=2.6
XM35 PGA_PAD_VDDIOQ_H_N 16 VSSD VSSD sky130_fd_pr__nfet_g5v0d10v5 L=0.6 W=0.42 AD=0.0588 AS=0.1113 PD=0.7 PS=1.37 NRD=0 NRS=0 m=1 sa=300000 sb=300009 a=0.252 p=2.04
XM36 35 36 VSSD VSSD sky130_fd_pr__nfet_g5v0d10v5 L=0.6 W=0.7 AD=0.098 AS=0.098 PD=0.98 PS=0.98 NRD=0 NRS=0 m=1 sa=300001 sb=300003 a=0.42 p=2.6
XM37 VSSD 16 PGA_PAD_VDDIOQ_H_N VSSD sky130_fd_pr__nfet_g5v0d10v5 L=0.6 W=0.42 AD=0.0588 AS=0.0588 PD=0.7 PS=0.7 NRD=0 NRS=0 m=1 sa=300001 sb=300008 a=0.252 p=2.04
XM38 VSSD 36 35 VSSD sky130_fd_pr__nfet_g5v0d10v5 L=0.6 W=0.7 AD=0.098 AS=0.098 PD=0.98 PS=0.98 NRD=0 NRS=0 m=1 sa=300002 sb=300003 a=0.42 p=2.6
XM39 PGB_PAD_VDDIOQ_H_N 18 VSSD VSSD sky130_fd_pr__nfet_g5v0d10v5 L=0.6 W=0.42 AD=0.0588 AS=0.0588 PD=0.7 PS=0.7 NRD=0 NRS=0 m=1 sa=300002 sb=300007 a=0.252 p=2.04
XM40 NMIDA_VCCD NMIDA_ON_N VSSD VSSD sky130_fd_pr__nfet_g5v0d10v5 L=0.6 W=0.7 AD=0.098 AS=0.098 PD=0.98 PS=0.98 NRD=0 NRS=0 m=1 sa=300003 sb=300002 a=0.42 p=2.6
XM41 VSSD 18 PGB_PAD_VDDIOQ_H_N VSSD sky130_fd_pr__nfet_g5v0d10v5 L=0.6 W=0.42 AD=0.0588 AS=0.0588 PD=0.7 PS=0.7 NRD=0 NRS=0 m=1 sa=300003 sb=300006 a=0.252 p=2.04
XM42 VSSD NMIDA_ON_N NMIDA_VCCD VSSD sky130_fd_pr__nfet_g5v0d10v5 L=0.6 W=0.7 AD=0.098 AS=0.098 PD=0.98 PS=0.98 NRD=0 NRS=0 m=1 sa=300003 sb=300001 a=0.42 p=2.6
XM43 PU_CSD_VDDIOQ_H_N 21 VSSD VSSD sky130_fd_pr__nfet_g5v0d10v5 L=0.6 W=0.42 AD=0.0588 AS=0.0588 PD=0.7 PS=0.7 NRD=0 NRS=0 m=1 sa=300003 sb=300005 a=0.252 p=2.04
XM44 NMIDA_VCCD_N NMIDA_VCCD VSSD VSSD sky130_fd_pr__nfet_g5v0d10v5 L=0.6 W=0.7 AD=0.1855 AS=0.098 PD=1.93 PS=0.98 NRD=0 NRS=0 m=1 sa=300004 sb=300000 a=0.42 p=2.6
XM45 VSSD 21 PU_CSD_VDDIOQ_H_N VSSD sky130_fd_pr__nfet_g5v0d10v5 L=0.6 W=0.42 AD=0.0588 AS=0.0588 PD=0.7 PS=0.7 NRD=0 NRS=0 m=1 sa=300004 sb=300004 a=0.252 p=2.04
XM46 PU_CSD_VDDIOQ_H_N 21 VSSD VSSD sky130_fd_pr__nfet_g5v0d10v5 L=0.6 W=0.42 AD=0.0588 AS=0.0588 PD=0.7 PS=0.7 NRD=0 NRS=0 m=1 sa=300005 sb=300003 a=0.252 p=2.04
XM47 VSSD 21 PU_CSD_VDDIOQ_H_N VSSD sky130_fd_pr__nfet_g5v0d10v5 L=0.6 W=0.42 AD=0.0588 AS=0.0588 PD=0.7 PS=0.7 NRD=0 NRS=0 m=1 sa=300006 sb=300003 a=0.252 p=2.04
XM48 PU_CSD_VDDIOQ_H_N 21 VSSD VSSD sky130_fd_pr__nfet_g5v0d10v5 L=0.6 W=0.42 AD=0.0588 AS=0.0588 PD=0.7 PS=0.7 NRD=0 NRS=0 m=1 sa=300007 sb=300002 a=0.252 p=2.04
XM49 VSSD 21 PU_CSD_VDDIOQ_H_N VSSD sky130_fd_pr__nfet_g5v0d10v5 L=0.6 W=0.42 AD=0.0588 AS=0.0588 PD=0.7 PS=0.7 NRD=0 NRS=0 m=1 sa=300008 sb=300001 a=0.252 p=2.04
XM50 PU_CSD_VDDIOQ_H_N 21 VSSD VSSD sky130_fd_pr__nfet_g5v0d10v5 L=0.6 W=0.42 AD=0.1113 AS=0.0588 PD=1.37 PS=0.7 NRD=0 NRS=0 m=1 sa=300009 sb=300000 a=0.252 p=2.04
XM51 VSWITCH PD_CSD_VSWITCH_H PD_CSD_VSWITCH_H_N VSWITCH sky130_fd_pr__pfet_g5v0d10v5 L=0.5 W=1.5 AD=0.21 AS=0.3975 PD=1.78 PS=3.53 NRD=0 NRS=0 m=1 sa=250000 sb=250001 a=0.75 p=4
XM52 NGA_PAD_VSWITCH_H_N NGA_PAD_VSWITCH_H VSWITCH VSWITCH sky130_fd_pr__pfet_g5v0d10v5 L=0.5 W=1.5 AD=0.3975 AS=0.21 PD=3.53 PS=1.78 NRD=0 NRS=0 m=1 sa=250001 sb=250000 a=0.75 p=4
XM53 VDDA 11 9 VDDA sky130_fd_pr__pfet_g5v0d10v5 L=1 W=0.42 AD=0.0588 AS=0.1113 PD=0.7 PS=1.37 NRD=0 NRS=0 m=1 sa=500000 sb=500001 a=0.42 p=2.84
XM54 VDDA 12 10 VDDA sky130_fd_pr__pfet_g5v0d10v5 L=1 W=0.42 AD=0.0588 AS=0.1113 PD=0.7 PS=1.37 NRD=0 NRS=0 m=1 sa=500000 sb=500001 a=0.42 p=2.84
XM55 11 9 VDDA VDDA sky130_fd_pr__pfet_g5v0d10v5 L=1 W=0.42 AD=0.1113 AS=0.0588 PD=1.37 PS=0.7 NRD=0 NRS=0 m=1 sa=500001 sb=500000 a=0.42 p=2.84
XM56 12 10 VDDA VDDA sky130_fd_pr__pfet_g5v0d10v5 L=1 W=0.42 AD=0.1113 AS=0.0588 PD=1.37 PS=0.7 NRD=0 NRS=0 m=1 sa=500001 sb=500000 a=0.42 p=2.84
XM57 PD_CSD_VSWITCH_H 13 VSWITCH VSWITCH sky130_fd_pr__pfet_g5v0d10v5 L=2 W=0.75 AD=0.105 AS=0.19875 PD=1.03 PS=2.03 NRD=0 NRS=0 m=1 sa=999999 sb=1e+06 a=1.5 p=5.5
XM58 VSWITCH 13 PD_CSD_VSWITCH_H VSWITCH sky130_fd_pr__pfet_g5v0d10v5 L=2 W=0.75 AD=0.19875 AS=0.105 PD=2.03 PS=1.03 NRD=0 NRS=0 m=1 sa=1e+06 sb=999999 a=1.5 p=5.5
XM59 NGA_AMX_VSWITCH_H 41 VSWITCH VSWITCH sky130_fd_pr__pfet_g5v0d10v5 L=0.6 W=1 AD=0.14 AS=0.265 PD=1.28 PS=2.53 NRD=0 NRS=0 m=1 sa=300000 sb=300006 a=0.6 p=3.2
XM60 VSWITCH 41 NGA_AMX_VSWITCH_H VSWITCH sky130_fd_pr__pfet_g5v0d10v5 L=0.6 W=1 AD=0.14 AS=0.14 PD=1.28 PS=1.28 NRD=0 NRS=0 m=1 sa=300001 sb=300005 a=0.6 p=3.2
XM61 NGB_AMX_VSWITCH_H 43 VSWITCH VSWITCH sky130_fd_pr__pfet_g5v0d10v5 L=0.6 W=1 AD=0.14 AS=0.14 PD=1.28 PS=1.28 NRD=0 NRS=0 m=1 sa=300002 sb=300004 a=0.6 p=3.2
XM62 VSWITCH 43 NGB_AMX_VSWITCH_H VSWITCH sky130_fd_pr__pfet_g5v0d10v5 L=0.6 W=1 AD=0.14 AS=0.14 PD=1.28 PS=1.28 NRD=0 NRS=0 m=1 sa=300003 sb=300003 a=0.6 p=3.2
XM63 NGB_PAD_VSWITCH_H 43 VSWITCH VSWITCH sky130_fd_pr__pfet_g5v0d10v5 L=0.6 W=1 AD=0.14 AS=0.14 PD=1.28 PS=1.28 NRD=0 NRS=0 m=1 sa=300003 sb=300003 a=0.6 p=3.2
XM64 VSWITCH 43 NGB_PAD_VSWITCH_H VSWITCH sky130_fd_pr__pfet_g5v0d10v5 L=0.6 W=1 AD=0.14 AS=0.14 PD=1.28 PS=1.28 NRD=0 NRS=0 m=1 sa=300004 sb=300002 a=0.6 p=3.2
XM65 NGA_PAD_VSWITCH_H 41 VSWITCH VSWITCH sky130_fd_pr__pfet_g5v0d10v5 L=0.6 W=1 AD=0.14 AS=0.14 PD=1.28 PS=1.28 NRD=0 NRS=0 m=1 sa=300005 sb=300001 a=0.6 p=3.2
XM66 VSWITCH 41 NGA_PAD_VSWITCH_H VSWITCH sky130_fd_pr__pfet_g5v0d10v5 L=0.6 W=1 AD=0.265 AS=0.14 PD=2.53 PS=1.28 NRD=0 NRS=0 m=1 sa=300006 sb=300000 a=0.6 p=3.2
XM67 NGB_PAD_VSWITCH_H_N NGB_PAD_VSWITCH_H VSWITCH VSWITCH sky130_fd_pr__pfet_g5v0d10v5 L=0.5 W=1.5 AD=0.3975 AS=0.3975 PD=3.53 PS=3.53 NRD=0 NRS=0 m=1 sa=250000 sb=250000 a=0.75 p=4
XM68 VCCD 35 D_B VCCD sky130_fd_pr__pfet_g5v0d10v5 L=0.6 W=1 AD=0.14 AS=0.265 PD=1.28 PS=2.53 NRD=0 NRS=0 m=1 sa=300000 sb=300004 a=0.6 p=3.2
XM69 VCCD 35 D_B VCCD sky130_fd_pr__pfet_g5v0d10v5 L=0.6 W=1 AD=0.14 AS=0.265 PD=1.28 PS=2.53 NRD=0 NRS=0 m=1 sa=300000 sb=300004 a=0.6 p=3.2
XM70 PGA_PAD_VDDIOQ_H_N 16 VDDIO_Q VDDIO_Q sky130_fd_pr__pfet_g5v0d10v5 L=0.6 W=1 AD=0.14 AS=0.265 PD=1.28 PS=2.53 NRD=0 NRS=0 m=1 sa=300000 sb=300009 a=0.6 p=3.2
XM71 35 36 VCCD VCCD sky130_fd_pr__pfet_g5v0d10v5 L=0.6 W=1 AD=0.14 AS=0.14 PD=1.28 PS=1.28 NRD=0 NRS=0 m=1 sa=300001 sb=300003 a=0.6 p=3.2
XM72 35 36 VCCD VCCD sky130_fd_pr__pfet_g5v0d10v5 L=0.6 W=1 AD=0.14 AS=0.14 PD=1.28 PS=1.28 NRD=0 NRS=0 m=1 sa=300001 sb=300003 a=0.6 p=3.2
XM73 VDDIO_Q 16 PGA_PAD_VDDIOQ_H_N VDDIO_Q sky130_fd_pr__pfet_g5v0d10v5 L=0.6 W=1 AD=0.14 AS=0.14 PD=1.28 PS=1.28 NRD=0 NRS=0 m=1 sa=300001 sb=300008 a=0.6 p=3.2
XM74 VCCD 36 35 VCCD sky130_fd_pr__pfet_g5v0d10v5 L=0.6 W=1 AD=0.14 AS=0.14 PD=1.28 PS=1.28 NRD=0 NRS=0 m=1 sa=300002 sb=300003 a=0.6 p=3.2
XM75 VCCD 36 35 VCCD sky130_fd_pr__pfet_g5v0d10v5 L=0.6 W=1 AD=0.14 AS=0.14 PD=1.28 PS=1.28 NRD=0 NRS=0 m=1 sa=300002 sb=300003 a=0.6 p=3.2
XM76 PGB_PAD_VDDIOQ_H_N 18 VDDIO_Q VDDIO_Q sky130_fd_pr__pfet_g5v0d10v5 L=0.6 W=1 AD=0.14 AS=0.14 PD=1.28 PS=1.28 NRD=0 NRS=0 m=1 sa=300002 sb=300007 a=0.6 p=3.2
XM77 NMIDA_VCCD NMIDA_ON_N VCCD VCCD sky130_fd_pr__pfet_g5v0d10v5 L=0.6 W=1 AD=0.14 AS=0.14 PD=1.28 PS=1.28 NRD=0 NRS=0 m=1 sa=300003 sb=300002 a=0.6 p=3.2
XM78 NMIDA_VCCD NMIDA_ON_N VCCD VCCD sky130_fd_pr__pfet_g5v0d10v5 L=0.6 W=1 AD=0.14 AS=0.14 PD=1.28 PS=1.28 NRD=0 NRS=0 m=1 sa=300003 sb=300002 a=0.6 p=3.2
XM79 VDDIO_Q 18 PGB_PAD_VDDIOQ_H_N VDDIO_Q sky130_fd_pr__pfet_g5v0d10v5 L=0.6 W=1 AD=0.14 AS=0.14 PD=1.28 PS=1.28 NRD=0 NRS=0 m=1 sa=300003 sb=300006 a=0.6 p=3.2
XM80 VCCD NMIDA_ON_N NMIDA_VCCD VCCD sky130_fd_pr__pfet_g5v0d10v5 L=0.6 W=1 AD=0.14 AS=0.14 PD=1.28 PS=1.28 NRD=0 NRS=0 m=1 sa=300003 sb=300001 a=0.6 p=3.2
XM81 VCCD NMIDA_ON_N NMIDA_VCCD VCCD sky130_fd_pr__pfet_g5v0d10v5 L=0.6 W=1 AD=0.14 AS=0.14 PD=1.28 PS=1.28 NRD=0 NRS=0 m=1 sa=300003 sb=300001 a=0.6 p=3.2
XM82 PU_CSD_VDDIOQ_H_N 21 VDDIO_Q VDDIO_Q sky130_fd_pr__pfet_g5v0d10v5 L=0.6 W=1 AD=0.14 AS=0.14 PD=1.28 PS=1.28 NRD=0 NRS=0 m=1 sa=300003 sb=300005 a=0.6 p=3.2
XM83 NMIDA_VCCD_N NMIDA_VCCD VCCD VCCD sky130_fd_pr__pfet_g5v0d10v5 L=0.6 W=1 AD=0.265 AS=0.14 PD=2.53 PS=1.28 NRD=0 NRS=0 m=1 sa=300004 sb=300000 a=0.6 p=3.2
XM84 NMIDA_VCCD_N NMIDA_VCCD VCCD VCCD sky130_fd_pr__pfet_g5v0d10v5 L=0.6 W=1 AD=0.265 AS=0.14 PD=2.53 PS=1.28 NRD=0 NRS=0 m=1 sa=300004 sb=300000 a=0.6 p=3.2
XM85 VDDIO_Q 21 PU_CSD_VDDIOQ_H_N VDDIO_Q sky130_fd_pr__pfet_g5v0d10v5 L=0.6 W=1 AD=0.14 AS=0.14 PD=1.28 PS=1.28 NRD=0 NRS=0 m=1 sa=300004 sb=300004 a=0.6 p=3.2
XM86 PU_CSD_VDDIOQ_H_N 21 VDDIO_Q VDDIO_Q sky130_fd_pr__pfet_g5v0d10v5 L=0.6 W=1 AD=0.14 AS=0.14 PD=1.28 PS=1.28 NRD=0 NRS=0 m=1 sa=300005 sb=300003 a=0.6 p=3.2
XM87 VDDIO_Q 21 PU_CSD_VDDIOQ_H_N VDDIO_Q sky130_fd_pr__pfet_g5v0d10v5 L=0.6 W=1 AD=0.14 AS=0.14 PD=1.28 PS=1.28 NRD=0 NRS=0 m=1 sa=300006 sb=300003 a=0.6 p=3.2
XM88 PU_CSD_VDDIOQ_H_N 21 VDDIO_Q VDDIO_Q sky130_fd_pr__pfet_g5v0d10v5 L=0.6 W=1 AD=0.14 AS=0.14 PD=1.28 PS=1.28 NRD=0 NRS=0 m=1 sa=300007 sb=300002 a=0.6 p=3.2
XM89 VDDIO_Q 21 PU_CSD_VDDIOQ_H_N VDDIO_Q sky130_fd_pr__pfet_g5v0d10v5 L=0.6 W=1 AD=0.14 AS=0.14 PD=1.28 PS=1.28 NRD=0 NRS=0 m=1 sa=300008 sb=300001 a=0.6 p=3.2
XM90 PU_CSD_VDDIOQ_H_N 21 VDDIO_Q VDDIO_Q sky130_fd_pr__pfet_g5v0d10v5 L=0.6 W=1 AD=0.265 AS=0.14 PD=2.53 PS=1.28 NRD=0 NRS=0 m=1 sa=300009 sb=300000 a=0.6 p=3.2
X91 VSSD VDDIO_Q sky130_fd_pr__model__parasitic__diode_ps2nw a=5.073 p=9.14 m=1
X92 VSSD VDDIO_Q sky130_fd_pr__model__parasitic__diode_ps2nw a=23.245 p=25.57 m=1
X93 VSSD VDDIO_Q sky130_fd_pr__model__parasitic__diode_ps2nw a=9.709 p=14.02 m=1
X94 VSSD VSWITCH sky130_fd_pr__model__parasitic__diode_ps2dn a=570.063 p=97.15 m=1
X95 VSSA VSWITCH sky130_fd_pr__model__parasitic__diode_pw2dn a=6.6852 p=10.51 m=1
X96 VSSA VSWITCH sky130_fd_pr__model__parasitic__diode_pw2dn a=51.6765 p=33.36 m=1
X97 VSSA VSWITCH sky130_fd_pr__model__parasitic__diode_pw2dn a=340.297 p=98.11 m=1
X98 VSSD VDDIO_Q AMUXBUSA_ON_N AMUX_EN_VDDIO_H_N AMUXBUSA_ON AMUX_EN_VDDIO_H 16 VCCD 14 71 72 sky130_ef_io__gpiov2_pad_wrapped__sky130_fd_io__gpiov2_amux_drvr_ls
X99 VSSA VSWITCH AMUXBUSA_ON_N AMUX_EN_VSWITCH_H_N AMUXBUSA_ON AMUX_EN_VSWITCH_H 74 VCCD 41 42 73 sky130_ef_io__gpiov2_pad_wrapped__sky130_fd_io__gpiov2_amux_drvr_ls
X100 VSSA VSWITCH AMUXBUSB_ON_N AMUX_EN_VSWITCH_H_N AMUXBUSB_ON AMUX_EN_VSWITCH_H 76 VCCD 43 44 75 sky130_ef_io__gpiov2_pad_wrapped__sky130_fd_io__gpiov2_amux_drvr_ls
X101 VSSA VSWITCH PD_ON_N AMUX_EN_VSWITCH_H_N PD_ON AMUX_EN_VSWITCH_H 78 VCCD 13 45 77 sky130_ef_io__gpiov2_pad_wrapped__sky130_fd_io__gpiov2_amux_drvr_ls
X102 VSSD VDDIO_Q AMUXBUSB_ON_N AMUX_EN_VDDIO_H_N AMUXBUSB_ON AMUX_EN_VDDIO_H 18 VCCD 20 46 79 sky130_ef_io__gpiov2_pad_wrapped__sky130_fd_io__gpiov2_amux_drvr_ls
X103 VSSD VDDIO_Q PU_ON_N AMUX_EN_VDDIO_H_N PU_ON AMUX_EN_VDDIO_H 21 VCCD 80 47 81 sky130_ef_io__gpiov2_pad_wrapped__sky130_fd_io__gpiov2_amux_drvr_ls
X129 VSSA AMUX_EN_VDDA_H 69 sky130_ef_io__gpiov2_pad_wrapped__sky130_fd_pr__nfet_01v8__example_55959141808568
X130 VSSA AMUX_EN_VDDA_H 70 sky130_ef_io__gpiov2_pad_wrapped__sky130_fd_pr__nfet_01v8__example_55959141808568
X139 VDDA 9 PGA_AMX_VDDA_H_N sky130_ef_io__gpiov2_pad_wrapped__sky130_fd_pr__pfet_01v8__example_55959141808567
X140 VDDA 10 PGB_AMX_VDDA_H_N sky130_ef_io__gpiov2_pad_wrapped__sky130_fd_pr__pfet_01v8__example_55959141808567
*.CALIBRE WARNING OPEN Open circuit(s) detected by extraction in this cell. See extraction report for details.
.ENDS
***************************************
***************************************
.SUBCKT sky130_ef_io__gpiov2_pad_wrapped__sky130_fd_pr__pfet_01v8__example_55959141808460 2 3 4
**
*.SEEDPROM
XM0 4 3 2 2 sky130_fd_pr__pfet_g5v0d10v5 L=0.5 W=0.75 AD=0.19875 AS=0.19875 PD=2.03 PS=2.03 NRD=0 NRS=0 m=1 sa=250000 sb=250000 a=0.375 p=2.5
.ENDS
***************************************
.SUBCKT sky130_ef_io__gpiov2_pad_wrapped__sky130_fd_io__gpiov2_amux_ctl_inv_1 VNB VPB IN VPWR OUT VGND
**
*.SEEDPROM
XM0 OUT IN VGND VNB sky130_fd_pr__nfet_01v8 L=0.15 W=0.74 AD=0.2109 AS=0.2627 PD=2.05 PS=2.19 NRD=0 NRS=11.34 m=1 sa=75000.3 sb=75000.2 a=0.111 p=1.78
XM1 OUT IN VPWR VPB sky130_fd_pr__pfet_01v8_hvt L=0.25 W=1 AD=0.295 AS=0.345 PD=2.59 PS=2.69 NRD=1.9503 NRS=11.8003 m=1 sa=125000 sb=125000 a=0.25 p=2.5
.ENDS
***************************************
***************************************
***************************************
***************************************
***************************************
.SUBCKT sky130_ef_io__gpiov2_pad_wrapped__sky130_fd_pr__nfet_01v8__example_55959141808589 1 2 3
**
XM0 3 2 1 1 sky130_fd_pr__nfet_g5v0d10v5 L=0.5 W=3 AD=0.795 AS=0.795 PD=6.53 PS=6.53 NRD=0 NRS=0 m=1 sa=250000 sb=250000 a=1.5 p=7
.ENDS
***************************************
***************************************
***************************************
.SUBCKT sky130_ef_io__gpiov2_pad_wrapped__sky130_fd_io__gpiov2_amux_ls VSSA VSSD VSWITCH VDDA VDDIO_Q VCCD ENABLE_VDDA_H AMUX_EN_VDDIO_H 15 ENABLE_VSWITCH_H AMUX_EN_VDDIO_H_N 18 19 20 21 HLD_I_H_N HLD_I_H AMUX_EN_VDDA_H_N AMUX_EN_VDDA_H AMUX_EN_VSWITCH_H_N AMUX_EN_VSWITCH_H ANALOG_EN
**
*.SEEDPROM
XM0 35 32 34 VSSD sky130_fd_pr__nfet_01v8_lvt L=0.15 W=1 AD=0.14 AS=0.265 PD=1.28 PS=2.53 NRD=0 NRS=0 m=1 sa=75000.2 sb=75003.2 a=0.15 p=2.3
XM1 34 32 35 VSSD sky130_fd_pr__nfet_01v8_lvt L=0.15 W=1 AD=0.14 AS=0.14 PD=1.28 PS=1.28 NRD=0 NRS=0 m=1 sa=75000.6 sb=75002.8 a=0.15 p=2.3
XM2 35 32 34 VSSD sky130_fd_pr__nfet_01v8_lvt L=0.15 W=1 AD=0.14 AS=0.14 PD=1.28 PS=1.28 NRD=0 NRS=0 m=1 sa=75001 sb=75002.3 a=0.15 p=2.3
XM3 34 32 35 VSSD sky130_fd_pr__nfet_01v8_lvt L=0.15 W=1 AD=0.14 AS=0.14 PD=1.28 PS=1.28 NRD=0 NRS=0 m=1 sa=75001.5 sb=75001.9 a=0.15 p=2.3
XM4 36 33 34 VSSD sky130_fd_pr__nfet_01v8_lvt L=0.15 W=1 AD=0.14 AS=0.14 PD=1.28 PS=1.28 NRD=0 NRS=0 m=1 sa=75001.9 sb=75001.5 a=0.15 p=2.3