I* SPICE NETLIST
***************************************


***************************************

***************************************
.SUBCKT sky130_fd_pr__res_bent_po__example_55959141808692 2 3
**
R0 3 2 sky130_fd_pr__res_generic_po L=900 W=0.33 m=1
.ENDS


***************************************
.SUBCKT sky130_fd_pr__pfet_01v8__example_55959141808687 2 3 4
**
*.SEEDPROM
XM0 4 3 2 2 sky130_fd_pr__pfet_01v8 L=0.18 W=7 AD=0.98 AS=1.96 PD=7.28 PS=14.56 NRD=0 NRS=0 m=1 sa=90000.2 sb=90004.3 a=1.26 p=14.36
XM1 2 3 4 2 sky130_fd_pr__pfet_01v8 L=0.18 W=7 AD=0.98 AS=0.98 PD=7.28 PS=7.28 NRD=0 NRS=0 m=1 sa=90000.7 sb=90003.9 a=1.26 p=14.36
XM2 4 3 2 2 sky130_fd_pr__pfet_01v8 L=0.18 W=7 AD=0.98 AS=0.98 PD=7.28 PS=7.28 NRD=0 NRS=0 m=1 sa=90001.1 sb=90003.4 a=1.26 p=14.36
XM3 2 3 4 2 sky130_fd_pr__pfet_01v8 L=0.18 W=7 AD=0.98 AS=0.98 PD=7.28 PS=7.28 NRD=0 NRS=0 m=1 sa=90001.6 sb=90002.9 a=1.26 p=14.36
XM4 4 3 2 2 sky130_fd_pr__pfet_01v8 L=0.18 W=7 AD=0.98 AS=0.98 PD=7.28 PS=7.28 NRD=0 NRS=0 m=1 sa=90002 sb=90002.5 a=1.26 p=14.36
XM5 2 3 4 2 sky130_fd_pr__pfet_01v8 L=0.18 W=7 AD=0.98 AS=0.98 PD=7.28 PS=7.28 NRD=0 NRS=0 m=1 sa=90002.5 sb=90002 a=1.26 p=14.36
XM6 4 3 2 2 sky130_fd_pr__pfet_01v8 L=0.18 W=7 AD=0.98 AS=0.98 PD=7.28 PS=7.28 NRD=0 NRS=0 m=1 sa=90002.9 sb=90001.6 a=1.26 p=14.36
XM7 2 3 4 2 sky130_fd_pr__pfet_01v8 L=0.18 W=7 AD=0.98 AS=0.98 PD=7.28 PS=7.28 NRD=0 NRS=0 m=1 sa=90003.4 sb=90001.1 a=1.26 p=14.36
XM8 4 3 2 2 sky130_fd_pr__pfet_01v8 L=0.18 W=7 AD=0.98 AS=0.98 PD=7.28 PS=7.28 NRD=0 NRS=0 m=1 sa=90003.9 sb=90000.7 a=1.26 p=14.36
XM9 2 3 4 2 sky130_fd_pr__pfet_01v8 L=0.18 W=7 AD=1.96 AS=0.98 PD=14.56 PS=7.28 NRD=0 NRS=0 m=1 sa=90004.3 sb=90000.2 a=1.26 p=14.36
.ENDS
***************************************


***************************************
.SUBCKT sky130_fd_pr__res_bent_po__example_55959141808691 2 3
**
R0 3 2 sky130_fd_pr__res_generic_po L=200 W=0.33 m=1
.ENDS
***************************************


***************************************
.SUBCKT sky130_fd_pr__nfet_01v8__example_55959141808704 2
**
*.SEEDPROM
X0 2 2 sky130_fd_pr__diode_pw2nd_05v5 a=2.1 p=14.6 m=1
X1 2 2 sky130_fd_pr__diode_pw2nd_05v5 a=2.1 p=14.6 m=1
.ENDS

***************************************
.SUBCKT sky130_fd_pr__nfet_01v8__example_55959141808695 2
**
*.SEEDPROM
X0 2 2 sky130_fd_pr__diode_pw2nd_05v5 a=1.5 p=10.6 m=1
X1 2 2 sky130_fd_pr__diode_pw2nd_05v5 a=1.5 p=10.6 m=1
.ENDS



***************************************
.SUBCKT sky130_fd_io__gnd2gnd_sub_dnwl 1 2
**
X0 1 2 sky130_fd_pr__model__parasitic__diode_ps2nw a=283.052 p=67.56 m=1
.ENDS
***************************************
.SUBCKT sky130_fd_io__gnd2gnd_120x2_lv_isosub VSUB VSSI VSS_N
**
XD0 VSS_N VSSI sky130_fd_pr__diode_pd2nw_05v5 AREA=22.5 m=1
XD1 VSS_N VSSI sky130_fd_pr__diode_pd2nw_05v5 AREA=22.5 m=1
XD2 VSS_N VSSI sky130_fd_pr__diode_pd2nw_05v5 AREA=22.5 m=1
XD3 VSS_N VSSI sky130_fd_pr__diode_pd2nw_05v5 AREA=22.5 m=1
XD4 VSSI VSS_N sky130_fd_pr__diode_pd2nw_05v5 AREA=22.5 m=1
XD5 VSSI VSS_N sky130_fd_pr__diode_pd2nw_05v5 AREA=22.5 m=1
XD6 VSSI VSS_N sky130_fd_pr__diode_pd2nw_05v5 AREA=22.5 m=1
XD7 VSSI VSS_N sky130_fd_pr__diode_pd2nw_05v5 AREA=22.5 m=1
X8 VSUB VSSI sky130_fd_io__gnd2gnd_sub_dnwl
X9 VSUB VSS_N sky130_fd_io__gnd2gnd_sub_dnwl
.ENDS
***************************************
.SUBCKT sky130_fd_pr__nfet_01v8__example_55959141808701 2
**
*.SEEDPROM
X0 2 2 sky130_fd_pr__diode_pw2nd_05v5 a=2.1 p=14.6 m=1
X1 2 2 sky130_fd_pr__diode_pw2nd_05v5 a=2.1 p=14.6 m=1
.ENDS
***************************************
.SUBCKT sky130_fd_pr__nfet_01v8__example_55959141808703 2
**
*.SEEDPROM
X0 2 2 sky130_fd_pr__diode_pw2nd_05v5 a=2.1 p=14.6 m=1
X1 2 2 sky130_fd_pr__diode_pw2nd_05v5 a=2.1 p=14.6 m=1
.ENDS
***************************************
.SUBCKT sky130_fd_pr__nfet_01v8__example_55959141808705 2
**
*.SEEDPROM
X0 2 2 sky130_fd_pr__diode_pw2nd_05v5 a=2.1 p=14.6 m=1
X1 2 2 sky130_fd_pr__diode_pw2nd_05v5 a=2.1 p=14.6 m=1
.ENDS
***************************************
.SUBCKT sky130_fd_pr__nfet_01v8__example_55959141808693 2
**
*.SEEDPROM
X0 2 2 sky130_fd_pr__diode_pw2nd_05v5 a=1.5 p=10.6 m=1
X1 2 2 sky130_fd_pr__diode_pw2nd_05v5 a=1.5 p=10.6 m=1
.ENDS
***************************************
**************************************
.SUBCKT sky130_fd_pr__res_bent_po__example_55959141808688 3 4
**
*.SEEDPROM
R0 3 4 sky130_fd_pr__res_generic_po L=720 W=0.33 m=1
.ENDS
***************************************
.SUBCKT sky130_fd_pr__res_bent_po__example_55959141808690 2 3
**
R0 3 2 sky130_fd_pr__res_generic_po L=300 W=0.33 m=1
.ENDS
***************************************
.SUBCKT sky130_fd_io__top_power_lvc_wpad VSSD SRC_BDY_LVC2 SRC_BDY_LVC1 DRN_LVC1 VDDIO DRN_LVC2 BDY2_B2B P_CORE P_PAD
**
*.CALIBRE ISOLATED NETS: OGC_LVC VCCHIB VCCD VDDA VSSIO VSWITCH VSSA AMUXBUS_B AMUXBUS_A VSSIO_Q VDDIO_Q
XM0 DRN_LVC2 25 SRC_BDY_LVC2 SRC_BDY_LVC2 sky130_fd_pr__nfet_01v8 L=0.18 W=7 AD=3.535 AS=3.5 PD=8.01 PS=15 NRD=3.336 NRS=3.42 m=1 sa=90001.1 sb=90019.9 a=1.26 p=14.36
XM1 DRN_LVC2 25 SRC_BDY_LVC2 SRC_BDY_LVC2 sky130_fd_pr__nfet_01v8 L=0.18 W=7 AD=3.535 AS=3.5 PD=8.01 PS=15 NRD=3.336 NRS=3.42 m=1 sa=90001.1 sb=90019.9 a=1.26 p=14.36
XM2 DRN_LVC2 25 SRC_BDY_LVC2 SRC_BDY_LVC2 sky130_fd_pr__nfet_01v8 L=0.18 W=7 AD=3.535 AS=3.5 PD=8.01 PS=15 NRD=3.336 NRS=3.42 m=1 sa=90001.1 sb=90019.9 a=1.26 p=14.36
XM3 DRN_LVC2 25 SRC_BDY_LVC2 SRC_BDY_LVC2 sky130_fd_pr__nfet_01v8 L=0.18 W=7 AD=3.535 AS=3.5 PD=8.01 PS=15 NRD=3.336 NRS=3.42 m=1 sa=90001.1 sb=90019.9 a=1.26 p=14.36
XM4 DRN_LVC2 25 SRC_BDY_LVC2 SRC_BDY_LVC2 sky130_fd_pr__nfet_01v8 L=0.18 W=5 AD=2.525 AS=2.5 PD=6.01 PS=11 NRD=4.68 NRS=4.8 m=1 sa=90001.1 sb=90019.9 a=0.9 p=10.36
XM5 DRN_LVC1 24 SRC_BDY_LVC1 SRC_BDY_LVC1 sky130_fd_pr__nfet_01v8 L=0.18 W=7 AD=3.535 AS=3.5 PD=8.01 PS=15 NRD=3.336 NRS=3.42 m=1 sa=90001.1 sb=90019.9 a=1.26 p=14.36
XM6 SRC_BDY_LVC2 25 DRN_LVC2 SRC_BDY_LVC2 sky130_fd_pr__nfet_01v8 L=0.18 W=7 AD=3.5 AS=3.535 PD=15 PS=8.01 NRD=3.42 NRS=3.336 m=1 sa=90002.3 sb=90019.9 a=1.26 p=14.36
XM7 SRC_BDY_LVC2 25 DRN_LVC2 SRC_BDY_LVC2 sky130_fd_pr__nfet_01v8 L=0.18 W=7 AD=3.5 AS=3.535 PD=15 PS=8.01 NRD=3.42 NRS=3.336 m=1 sa=90002.3 sb=90019.9 a=1.26 p=14.36
XM8 SRC_BDY_LVC2 25 DRN_LVC2 SRC_BDY_LVC2 sky130_fd_pr__nfet_01v8 L=0.18 W=7 AD=3.5 AS=3.535 PD=15 PS=8.01 NRD=3.42 NRS=3.336 m=1 sa=90002.3 sb=90019.9 a=1.26 p=14.36
XM9 SRC_BDY_LVC2 25 DRN_LVC2 SRC_BDY_LVC2 sky130_fd_pr__nfet_01v8 L=0.18 W=7 AD=3.5 AS=3.535 PD=15 PS=8.01 NRD=3.42 NRS=3.336 m=1 sa=90002.3 sb=90019.9 a=1.26 p=14.36
XM10 SRC_BDY_LVC2 25 DRN_LVC2 SRC_BDY_LVC2 sky130_fd_pr__nfet_01v8 L=0.18 W=5 AD=2.5 AS=2.525 PD=11 PS=6.01 NRD=4.8 NRS=4.68 m=1 sa=90002.3 sb=90019.9 a=0.9 p=10.36
XM11 SRC_BDY_LVC1 24 DRN_LVC1 SRC_BDY_LVC1 sky130_fd_pr__nfet_01v8 L=0.18 W=7 AD=3.5 AS=3.535 PD=15 PS=8.01 NRD=3.42 NRS=3.336 m=1 sa=90002.3 sb=90019.9 a=1.26 p=14.36
XM12 SRC_BDY_LVC2 23 SRC_BDY_LVC2 SRC_BDY_LVC2 sky130_fd_pr__nfet_01v8 L=4 W=5 AD=0.7 AS=1.325 PD=5.28 PS=10.53 NRD=0 NRS=0 m=1 sa=2e+06 sb=2.00002e+06 a=20 p=18
XM13 DRN_LVC2 25 SRC_BDY_LVC2 SRC_BDY_LVC2 sky130_fd_pr__nfet_01v8 L=0.18 W=7 AD=3.535 AS=3.5 PD=8.01 PS=15 NRD=3.336 NRS=3.42 m=1 sa=90003.9 sb=90019.9 a=1.26 p=14.36
XM14 DRN_LVC2 25 SRC_BDY_LVC2 SRC_BDY_LVC2 sky130_fd_pr__nfet_01v8 L=0.18 W=7 AD=3.535 AS=3.5 PD=8.01 PS=15 NRD=3.336 NRS=3.42 m=1 sa=90003.9 sb=90019.9 a=1.26 p=14.36
XM15 DRN_LVC2 25 SRC_BDY_LVC2 SRC_BDY_LVC2 sky130_fd_pr__nfet_01v8 L=0.18 W=7 AD=3.535 AS=3.5 PD=8.01 PS=15 NRD=3.336 NRS=3.42 m=1 sa=90003.9 sb=90019.9 a=1.26 p=14.36
XM16 DRN_LVC2 25 SRC_BDY_LVC2 SRC_BDY_LVC2 sky130_fd_pr__nfet_01v8 L=0.18 W=7 AD=3.535 AS=3.5 PD=8.01 PS=15 NRD=3.336 NRS=3.42 m=1 sa=90003.9 sb=90019.9 a=1.26 p=14.36
XM17 DRN_LVC2 25 SRC_BDY_LVC2 SRC_BDY_LVC2 sky130_fd_pr__nfet_01v8 L=0.18 W=5 AD=2.525 AS=2.5 PD=6.01 PS=11 NRD=4.68 NRS=4.8 m=1 sa=90003.9 sb=90019.9 a=0.9 p=10.36
XM18 DRN_LVC1 24 SRC_BDY_LVC1 SRC_BDY_LVC1 sky130_fd_pr__nfet_01v8 L=0.18 W=7 AD=3.535 AS=3.5 PD=8.01 PS=15 NRD=3.336 NRS=3.42 m=1 sa=90001.1 sb=90019.9 a=1.26 p=14.36
XM19 DRN_LVC1 24 SRC_BDY_LVC1 SRC_BDY_LVC1 sky130_fd_pr__nfet_01v8 L=0.18 W=7 AD=3.535 AS=3.5 PD=8.01 PS=15 NRD=3.336 NRS=3.42 m=1 sa=90003.9 sb=90019.9 a=1.26 p=14.36
XM20 DRN_LVC1 24 SRC_BDY_LVC1 SRC_BDY_LVC1 sky130_fd_pr__nfet_01v8 L=0.18 W=7 AD=4.095 AS=7.875 PD=8.17 PS=16.25 NRD=4.704 NRS=14.136 m=1 sa=90001.7 sb=90019.9 a=1.26 p=14.36
XM21 DRN_LVC1 24 SRC_BDY_LVC1 SRC_BDY_LVC1 sky130_fd_pr__nfet_01v8 L=0.18 W=7 AD=4.095 AS=7.875 PD=8.17 PS=16.25 NRD=4.704 NRS=14.136 m=1 sa=90001.7 sb=90019.9 a=1.26 p=14.36
XM22 DRN_LVC1 24 SRC_BDY_LVC1 SRC_BDY_LVC1 sky130_fd_pr__nfet_01v8 L=0.18 W=7 AD=4.095 AS=7.875 PD=8.17 PS=16.25 NRD=4.704 NRS=14.136 m=1 sa=90001.7 sb=90019.9 a=1.26 p=14.36
XM23 SRC_BDY_LVC2 25 DRN_LVC2 SRC_BDY_LVC2 sky130_fd_pr__nfet_01v8 L=0.18 W=7 AD=3.5 AS=3.535 PD=15 PS=8.01 NRD=3.42 NRS=3.336 m=1 sa=90005.1 sb=90019.9 a=1.26 p=14.36
XM24 SRC_BDY_LVC2 25 DRN_LVC2 SRC_BDY_LVC2 sky130_fd_pr__nfet_01v8 L=0.18 W=7 AD=3.5 AS=3.535 PD=15 PS=8.01 NRD=3.42 NRS=3.336 m=1 sa=90005.1 sb=90019.9 a=1.26 p=14.36
XM25 SRC_BDY_LVC2 25 DRN_LVC2 SRC_BDY_LVC2 sky130_fd_pr__nfet_01v8 L=0.18 W=7 AD=3.5 AS=3.535 PD=15 PS=8.01 NRD=3.42 NRS=3.336 m=1 sa=90005.1 sb=90019.9 a=1.26 p=14.36
XM26 SRC_BDY_LVC2 25 DRN_LVC2 SRC_BDY_LVC2 sky130_fd_pr__nfet_01v8 L=0.18 W=7 AD=3.5 AS=3.535 PD=15 PS=8.01 NRD=3.42 NRS=3.336 m=1 sa=90005.1 sb=90019.9 a=1.26 p=14.36
XM27 SRC_BDY_LVC2 25 DRN_LVC2 SRC_BDY_LVC2 sky130_fd_pr__nfet_01v8 L=0.18 W=5 AD=2.5 AS=2.525 PD=11 PS=6.01 NRD=4.8 NRS=4.68 m=1 sa=90005.1 sb=90019.9 a=0.9 p=10.36
XM28 SRC_BDY_LVC1 24 DRN_LVC1 SRC_BDY_LVC1 sky130_fd_pr__nfet_01v8 L=0.18 W=7 AD=3.5 AS=3.535 PD=15 PS=8.01 NRD=3.42 NRS=3.336 m=1 sa=90002.3 sb=90019.9 a=1.26 p=14.36
XM29 SRC_BDY_LVC1 24 DRN_LVC1 SRC_BDY_LVC1 sky130_fd_pr__nfet_01v8 L=0.18 W=7 AD=3.5 AS=3.535 PD=15 PS=8.01 NRD=3.42 NRS=3.336 m=1 sa=90005.1 sb=90019.9 a=1.26 p=14.36
XM30 SRC_BDY_LVC1 24 DRN_LVC1 SRC_BDY_LVC1 sky130_fd_pr__nfet_01v8 L=0.18 W=7 AD=7.875 AS=4.095 PD=16.25 PS=8.17 NRD=14.136 NRS=4.704 m=1 sa=90003.1 sb=90019.9 a=1.26 p=14.36
XM31 SRC_BDY_LVC1 24 DRN_LVC1 SRC_BDY_LVC1 sky130_fd_pr__nfet_01v8 L=0.18 W=7 AD=7.875 AS=4.095 PD=16.25 PS=8.17 NRD=14.136 NRS=4.704 m=1 sa=90003.1 sb=90019.9 a=1.26 p=14.36
XM32 SRC_BDY_LVC1 24 DRN_LVC1 SRC_BDY_LVC1 sky130_fd_pr__nfet_01v8 L=0.18 W=7 AD=7.875 AS=4.095 PD=16.25 PS=8.17 NRD=14.136 NRS=4.704 m=1 sa=90003.1 sb=90019.9 a=1.26 p=14.36
XM33 DRN_LVC2 25 SRC_BDY_LVC2 SRC_BDY_LVC2 sky130_fd_pr__nfet_01v8 L=0.18 W=7 AD=3.535 AS=3.5 PD=8.01 PS=15 NRD=3.336 NRS=3.42 m=1 sa=90006.6 sb=90019.9 a=1.26 p=14.36
XM34 DRN_LVC2 25 SRC_BDY_LVC2 SRC_BDY_LVC2 sky130_fd_pr__nfet_01v8 L=0.18 W=7 AD=3.535 AS=3.5 PD=8.01 PS=15 NRD=3.336 NRS=3.42 m=1 sa=90006.6 sb=90019.9 a=1.26 p=14.36
XM35 DRN_LVC2 25 SRC_BDY_LVC2 SRC_BDY_LVC2 sky130_fd_pr__nfet_01v8 L=0.18 W=7 AD=3.535 AS=3.5 PD=8.01 PS=15 NRD=3.336 NRS=3.42 m=1 sa=90006.6 sb=90019.9 a=1.26 p=14.36
XM36 DRN_LVC2 25 SRC_BDY_LVC2 SRC_BDY_LVC2 sky130_fd_pr__nfet_01v8 L=0.18 W=7 AD=3.535 AS=3.5 PD=8.01 PS=15 NRD=3.336 NRS=3.42 m=1 sa=90006.6 sb=90019.9 a=1.26 p=14.36
XM37 DRN_LVC2 25 SRC_BDY_LVC2 SRC_BDY_LVC2 sky130_fd_pr__nfet_01v8 L=0.18 W=5 AD=2.525 AS=2.5 PD=6.01 PS=11 NRD=4.68 NRS=4.8 m=1 sa=90006.6 sb=90019.9 a=0.9 p=10.36
XM38 DRN_LVC1 24 SRC_BDY_LVC1 SRC_BDY_LVC1 sky130_fd_pr__nfet_01v8 L=0.18 W=7 AD=3.535 AS=3.5 PD=8.01 PS=15 NRD=3.336 NRS=3.42 m=1 sa=90003.9 sb=90019.9 a=1.26 p=14.36
XM39 DRN_LVC1 24 SRC_BDY_LVC1 SRC_BDY_LVC1 sky130_fd_pr__nfet_01v8 L=0.18 W=7 AD=3.535 AS=3.5 PD=8.01 PS=15 NRD=3.336 NRS=3.42 m=1 sa=90006.6 sb=90019.9 a=1.26 p=14.36
XM40 SRC_BDY_LVC2 25 DRN_LVC2 SRC_BDY_LVC2 sky130_fd_pr__nfet_01v8 L=0.18 W=7 AD=3.5 AS=3.535 PD=15 PS=8.01 NRD=3.42 NRS=3.336 m=1 sa=90007.8 sb=90019.9 a=1.26 p=14.36
XM41 SRC_BDY_LVC2 25 DRN_LVC2 SRC_BDY_LVC2 sky130_fd_pr__nfet_01v8 L=0.18 W=7 AD=3.5 AS=3.535 PD=15 PS=8.01 NRD=3.42 NRS=3.336 m=1 sa=90007.8 sb=90019.9 a=1.26 p=14.36
XM42 SRC_BDY_LVC2 25 DRN_LVC2 SRC_BDY_LVC2 sky130_fd_pr__nfet_01v8 L=0.18 W=7 AD=3.5 AS=3.535 PD=15 PS=8.01 NRD=3.42 NRS=3.336 m=1 sa=90007.8 sb=90019.9 a=1.26 p=14.36
XM43 SRC_BDY_LVC2 25 DRN_LVC2 SRC_BDY_LVC2 sky130_fd_pr__nfet_01v8 L=0.18 W=7 AD=3.5 AS=3.535 PD=15 PS=8.01 NRD=3.42 NRS=3.336 m=1 sa=90007.8 sb=90019.9 a=1.26 p=14.36
XM44 SRC_BDY_LVC2 25 DRN_LVC2 SRC_BDY_LVC2 sky130_fd_pr__nfet_01v8 L=0.18 W=5 AD=2.5 AS=2.525 PD=11 PS=6.01 NRD=4.8 NRS=4.68 m=1 sa=90007.8 sb=90019.9 a=0.9 p=10.36
XM45 SRC_BDY_LVC1 24 DRN_LVC1 SRC_BDY_LVC1 sky130_fd_pr__nfet_01v8 L=0.18 W=7 AD=3.5 AS=3.535 PD=15 PS=8.01 NRD=3.42 NRS=3.336 m=1 sa=90005.1 sb=90019.9 a=1.26 p=14.36
XM46 SRC_BDY_LVC1 24 DRN_LVC1 SRC_BDY_LVC1 sky130_fd_pr__nfet_01v8 L=0.18 W=7 AD=3.5 AS=3.535 PD=15 PS=8.01 NRD=3.42 NRS=3.336 m=1 sa=90007.8 sb=90019.9 a=1.26 p=14.36
XM47 DRN_LVC1 24 SRC_BDY_LVC1 SRC_BDY_LVC1 sky130_fd_pr__nfet_01v8 L=0.18 W=7 AD=4.095 AS=7.875 PD=8.17 PS=16.25 NRD=4.704 NRS=14.136 m=1 sa=90005.9 sb=90019.9 a=1.26 p=14.36
XM48 DRN_LVC1 24 SRC_BDY_LVC1 SRC_BDY_LVC1 sky130_fd_pr__nfet_01v8 L=0.18 W=7 AD=4.095 AS=7.875 PD=8.17 PS=16.25 NRD=4.704 NRS=14.136 m=1 sa=90005.9 sb=90019.9 a=1.26 p=14.36
XM49 DRN_LVC1 24 SRC_BDY_LVC1 SRC_BDY_LVC1 sky130_fd_pr__nfet_01v8 L=0.18 W=7 AD=4.095 AS=7.875 PD=8.17 PS=16.25 NRD=4.704 NRS=14.136 m=1 sa=90005.9 sb=90019.9 a=1.26 p=14.36
XM50 DRN_LVC2 25 SRC_BDY_LVC2 SRC_BDY_LVC2 sky130_fd_pr__nfet_01v8 L=0.18 W=7 AD=3.535 AS=3.5 PD=8.01 PS=15 NRD=3.336 NRS=3.42 m=1 sa=90009.4 sb=90019.9 a=1.26 p=14.36
XM51 DRN_LVC2 25 SRC_BDY_LVC2 SRC_BDY_LVC2 sky130_fd_pr__nfet_01v8 L=0.18 W=7 AD=3.535 AS=3.5 PD=8.01 PS=15 NRD=3.336 NRS=3.42 m=1 sa=90009.4 sb=90019.9 a=1.26 p=14.36
XM52 DRN_LVC2 25 SRC_BDY_LVC2 SRC_BDY_LVC2 sky130_fd_pr__nfet_01v8 L=0.18 W=7 AD=3.535 AS=3.5 PD=8.01 PS=15 NRD=3.336 NRS=3.42 m=1 sa=90009.4 sb=90019.9 a=1.26 p=14.36
XM53 DRN_LVC2 25 SRC_BDY_LVC2 SRC_BDY_LVC2 sky130_fd_pr__nfet_01v8 L=0.18 W=7 AD=3.535 AS=3.5 PD=8.01 PS=15 NRD=3.336 NRS=3.42 m=1 sa=90009.4 sb=90019.9 a=1.26 p=14.36
XM54 DRN_LVC2 25 SRC_BDY_LVC2 SRC_BDY_LVC2 sky130_fd_pr__nfet_01v8 L=0.18 W=5 AD=2.525 AS=2.5 PD=6.01 PS=11 NRD=4.68 NRS=4.8 m=1 sa=90009.4 sb=90019.9 a=0.9 p=10.36
XM55 DRN_LVC1 24 SRC_BDY_LVC1 SRC_BDY_LVC1 sky130_fd_pr__nfet_01v8 L=0.18 W=7 AD=3.535 AS=3.5 PD=8.01 PS=15 NRD=3.336 NRS=3.42 m=1 sa=90006.6 sb=90019.9 a=1.26 p=14.36
XM56 DRN_LVC1 24 SRC_BDY_LVC1 SRC_BDY_LVC1 sky130_fd_pr__nfet_01v8 L=0.18 W=7 AD=3.535 AS=3.5 PD=8.01 PS=15 NRD=3.336 NRS=3.42 m=1 sa=90009.4 sb=90019.9 a=1.26 p=14.36
XM57 SRC_BDY_LVC1 24 DRN_LVC1 SRC_BDY_LVC1 sky130_fd_pr__nfet_01v8 L=0.18 W=7 AD=7.875 AS=4.095 PD=16.25 PS=8.17 NRD=14.136 NRS=4.704 m=1 sa=90007.3 sb=90019.9 a=1.26 p=14.36
XM58 SRC_BDY_LVC1 24 DRN_LVC1 SRC_BDY_LVC1 sky130_fd_pr__nfet_01v8 L=0.18 W=7 AD=7.875 AS=4.095 PD=16.25 PS=8.17 NRD=14.136 NRS=4.704 m=1 sa=90007.3 sb=90019.9 a=1.26 p=14.36
XM59 SRC_BDY_LVC1 24 DRN_LVC1 SRC_BDY_LVC1 sky130_fd_pr__nfet_01v8 L=0.18 W=7 AD=7.875 AS=4.095 PD=16.25 PS=8.17 NRD=14.136 NRS=4.704 m=1 sa=90007.3 sb=90019.9 a=1.26 p=14.36
XM60 SRC_BDY_LVC2 25 DRN_LVC2 SRC_BDY_LVC2 sky130_fd_pr__nfet_01v8 L=0.18 W=7 AD=3.5 AS=3.535 PD=15 PS=8.01 NRD=3.42 NRS=3.336 m=1 sa=90010.6 sb=90019.9 a=1.26 p=14.36
XM61 SRC_BDY_LVC2 25 DRN_LVC2 SRC_BDY_LVC2 sky130_fd_pr__nfet_01v8 L=0.18 W=7 AD=3.5 AS=3.535 PD=15 PS=8.01 NRD=3.42 NRS=3.336 m=1 sa=90010.6 sb=90019.9 a=1.26 p=14.36
XM62 SRC_BDY_LVC2 25 DRN_LVC2 SRC_BDY_LVC2 sky130_fd_pr__nfet_01v8 L=0.18 W=7 AD=3.5 AS=3.535 PD=15 PS=8.01 NRD=3.42 NRS=3.336 m=1 sa=90010.6 sb=90019.9 a=1.26 p=14.36
XM63 SRC_BDY_LVC2 25 DRN_LVC2 SRC_BDY_LVC2 sky130_fd_pr__nfet_01v8 L=0.18 W=7 AD=3.5 AS=3.535 PD=15 PS=8.01 NRD=3.42 NRS=3.336 m=1 sa=90010.6 sb=90019.9 a=1.26 p=14.36
XM64 SRC_BDY_LVC2 25 DRN_LVC2 SRC_BDY_LVC2 sky130_fd_pr__nfet_01v8 L=0.18 W=5 AD=2.5 AS=2.525 PD=11 PS=6.01 NRD=4.8 NRS=4.68 m=1 sa=90010.6 sb=90019.9 a=0.9 p=10.36
XM65 SRC_BDY_LVC1 24 DRN_LVC1 SRC_BDY_LVC1 sky130_fd_pr__nfet_01v8 L=0.18 W=7 AD=3.5 AS=3.535 PD=15 PS=8.01 NRD=3.42 NRS=3.336 m=1 sa=90007.8 sb=90019.9 a=1.26 p=14.36
XM66 SRC_BDY_LVC1 24 DRN_LVC1 SRC_BDY_LVC1 sky130_fd_pr__nfet_01v8 L=0.18 W=7 AD=3.5 AS=3.535 PD=15 PS=8.01 NRD=3.42 NRS=3.336 m=1 sa=90010.6 sb=90019.9 a=1.26 p=14.36
XM67 SRC_BDY_LVC2 23 25 SRC_BDY_LVC2 sky130_fd_pr__nfet_01v8 L=0.18 W=7 AD=2.3975 AS=4.76 PD=7.685 PS=15.36 NRD=6.936 NRS=6.852 m=1 sa=90000.6 sb=90019.9 a=1.26 p=14.36
XM68 SRC_BDY_LVC2 23 25 SRC_BDY_LVC2 sky130_fd_pr__nfet_01v8 L=0.18 W=7 AD=2.3975 AS=4.76 PD=7.685 PS=15.36 NRD=6.936 NRS=6.852 m=1 sa=90000.6 sb=90019.9 a=1.26 p=14.36
XM69 SRC_BDY_LVC1 21 24 SRC_BDY_LVC1 sky130_fd_pr__nfet_01v8 L=0.18 W=7 AD=2.3975 AS=4.76 PD=7.685 PS=15.36 NRD=6.936 NRS=6.852 m=1 sa=90000.6 sb=90019.9 a=1.26 p=14.36
XM70 SRC_BDY_LVC1 21 24 SRC_BDY_LVC1 sky130_fd_pr__nfet_01v8 L=0.18 W=7 AD=2.3975 AS=4.76 PD=7.685 PS=15.36 NRD=6.936 NRS=6.852 m=1 sa=90000.6 sb=90019.9 a=1.26 p=14.36
XM71 SRC_BDY_LVC1 21 24 SRC_BDY_LVC1 sky130_fd_pr__nfet_01v8 L=0.18 W=7 AD=2.3975 AS=4.76 PD=7.685 PS=15.36 NRD=6.936 NRS=6.852 m=1 sa=90000.6 sb=90019.9 a=1.26 p=14.36
XM72 SRC_BDY_LVC2 23 SRC_BDY_LVC2 SRC_BDY_LVC2 sky130_fd_pr__nfet_01v8 L=8 W=5 AD=0.7 AS=0.7 PD=5.28 PS=5.28 NRD=0 NRS=0 m=1 sa=4e+06 sb=4.00002e+06 a=40 p=26
XM73 DRN_LVC2 25 SRC_BDY_LVC2 SRC_BDY_LVC2 sky130_fd_pr__nfet_01v8 L=0.18 W=7 AD=3.535 AS=3.5 PD=8.01 PS=15 NRD=3.336 NRS=3.42 m=1 sa=90012.2 sb=90019.9 a=1.26 p=14.36
XM74 DRN_LVC2 25 SRC_BDY_LVC2 SRC_BDY_LVC2 sky130_fd_pr__nfet_01v8 L=0.18 W=7 AD=3.535 AS=3.5 PD=8.01 PS=15 NRD=3.336 NRS=3.42 m=1 sa=90012.2 sb=90019.9 a=1.26 p=14.36
XM75 DRN_LVC2 25 SRC_BDY_LVC2 SRC_BDY_LVC2 sky130_fd_pr__nfet_01v8 L=0.18 W=7 AD=3.535 AS=3.5 PD=8.01 PS=15 NRD=3.336 NRS=3.42 m=1 sa=90012.2 sb=90019.9 a=1.26 p=14.36
XM76 DRN_LVC2 25 SRC_BDY_LVC2 SRC_BDY_LVC2 sky130_fd_pr__nfet_01v8 L=0.18 W=7 AD=3.535 AS=3.5 PD=8.01 PS=15 NRD=3.336 NRS=3.42 m=1 sa=90012.2 sb=90019.9 a=1.26 p=14.36
XM77 DRN_LVC2 25 SRC_BDY_LVC2 SRC_BDY_LVC2 sky130_fd_pr__nfet_01v8 L=0.18 W=5 AD=2.525 AS=2.5 PD=6.01 PS=11 NRD=4.68 NRS=4.8 m=1 sa=90012.2 sb=90019.9 a=0.9 p=10.36
XM78 DRN_LVC1 24 SRC_BDY_LVC1 SRC_BDY_LVC1 sky130_fd_pr__nfet_01v8 L=0.18 W=7 AD=3.535 AS=3.5 PD=8.01 PS=15 NRD=3.336 NRS=3.42 m=1 sa=90009.4 sb=90019.9 a=1.26 p=14.36
XM79 DRN_LVC1 24 SRC_BDY_LVC1 SRC_BDY_LVC1 sky130_fd_pr__nfet_01v8 L=0.18 W=7 AD=3.535 AS=3.5 PD=8.01 PS=15 NRD=3.336 NRS=3.42 m=1 sa=90012.2 sb=90019.9 a=1.26 p=14.36
XM80 DRN_LVC1 24 SRC_BDY_LVC1 SRC_BDY_LVC1 sky130_fd_pr__nfet_01v8 L=0.18 W=5 AD=2.925 AS=5.625 PD=6.17 PS=12.25 NRD=6.6 NRS=19.788 m=1 sa=90001.7 sb=90019.9 a=0.9 p=10.36
XM81 DRN_LVC1 24 SRC_BDY_LVC1 SRC_BDY_LVC1 sky130_fd_pr__nfet_01v8 L=0.18 W=7 AD=4.095 AS=7.875 PD=8.17 PS=16.25 NRD=4.704 NRS=14.136 m=1 sa=90001.7 sb=90019.9 a=1.26 p=14.36
XM82 DRN_LVC1 24 SRC_BDY_LVC1 SRC_BDY_LVC1 sky130_fd_pr__nfet_01v8 L=0.18 W=7 AD=4.095 AS=7.875 PD=8.17 PS=16.25 NRD=4.704 NRS=14.136 m=1 sa=90010.1 sb=90019.9 a=1.26 p=14.36
XM83 DRN_LVC1 24 SRC_BDY_LVC1 SRC_BDY_LVC1 sky130_fd_pr__nfet_01v8 L=0.18 W=7 AD=4.095 AS=7.875 PD=8.17 PS=16.25 NRD=4.704 NRS=14.136 m=1 sa=90010.1 sb=90019.9 a=1.26 p=14.36
XM84 DRN_LVC1 24 SRC_BDY_LVC1 SRC_BDY_LVC1 sky130_fd_pr__nfet_01v8 L=0.18 W=7 AD=4.095 AS=7.875 PD=8.17 PS=16.25 NRD=4.704 NRS=14.136 m=1 sa=90010.1 sb=90019.9 a=1.26 p=14.36
XM85 SRC_BDY_LVC2 25 DRN_LVC2 SRC_BDY_LVC2 sky130_fd_pr__nfet_01v8 L=0.18 W=7 AD=3.5 AS=3.535 PD=15 PS=8.01 NRD=3.42 NRS=3.336 m=1 sa=90013.4 sb=90019.9 a=1.26 p=14.36
XM86 SRC_BDY_LVC2 25 DRN_LVC2 SRC_BDY_LVC2 sky130_fd_pr__nfet_01v8 L=0.18 W=7 AD=3.5 AS=3.535 PD=15 PS=8.01 NRD=3.42 NRS=3.336 m=1 sa=90013.4 sb=90019.9 a=1.26 p=14.36
XM87 SRC_BDY_LVC2 25 DRN_LVC2 SRC_BDY_LVC2 sky130_fd_pr__nfet_01v8 L=0.18 W=7 AD=3.5 AS=3.535 PD=15 PS=8.01 NRD=3.42 NRS=3.336 m=1 sa=90013.4 sb=90019.9 a=1.26 p=14.36
XM88 SRC_BDY_LVC2 25 DRN_LVC2 SRC_BDY_LVC2 sky130_fd_pr__nfet_01v8 L=0.18 W=7 AD=3.5 AS=3.535 PD=15 PS=8.01 NRD=3.42 NRS=3.336 m=1 sa=90013.4 sb=90019.9 a=1.26 p=14.36
XM89 SRC_BDY_LVC2 25 DRN_LVC2 SRC_BDY_LVC2 sky130_fd_pr__nfet_01v8 L=0.18 W=5 AD=2.5 AS=2.525 PD=11 PS=6.01 NRD=4.8 NRS=4.68 m=1 sa=90013.4 sb=90019.9 a=0.9 p=10.36
XM90 SRC_BDY_LVC1 24 DRN_LVC1 SRC_BDY_LVC1 sky130_fd_pr__nfet_01v8 L=0.18 W=7 AD=3.5 AS=3.535 PD=15 PS=8.01 NRD=3.42 NRS=3.336 m=1 sa=90010.6 sb=90019.9 a=1.26 p=14.36
XM91 SRC_BDY_LVC1 24 DRN_LVC1 SRC_BDY_LVC1 sky130_fd_pr__nfet_01v8 L=0.18 W=7 AD=3.5 AS=3.535 PD=15 PS=8.01 NRD=3.42 NRS=3.336 m=1 sa=90013.4 sb=90019.9 a=1.26 p=14.36
XM92 SRC_BDY_LVC1 24 DRN_LVC1 SRC_BDY_LVC1 sky130_fd_pr__nfet_01v8 L=0.18 W=5 AD=5.625 AS=2.925 PD=12.25 PS=6.17 NRD=19.788 NRS=6.6 m=1 sa=90003.1 sb=90019.9 a=0.9 p=10.36
XM93 SRC_BDY_LVC1 24 DRN_LVC1 SRC_BDY_LVC1 sky130_fd_pr__nfet_01v8 L=0.18 W=7 AD=7.875 AS=4.095 PD=16.25 PS=8.17 NRD=14.136 NRS=4.704 m=1 sa=90003.1 sb=90019.9 a=1.26 p=14.36
XM94 SRC_BDY_LVC1 24 DRN_LVC1 SRC_BDY_LVC1 sky130_fd_pr__nfet_01v8 L=0.18 W=7 AD=7.875 AS=4.095 PD=16.25 PS=8.17 NRD=14.136 NRS=4.704 m=1 sa=90011.4 sb=90019.9 a=1.26 p=14.36
XM95 SRC_BDY_LVC1 24 DRN_LVC1 SRC_BDY_LVC1 sky130_fd_pr__nfet_01v8 L=0.18 W=7 AD=7.875 AS=4.095 PD=16.25 PS=8.17 NRD=14.136 NRS=4.704 m=1 sa=90011.4 sb=90019.9 a=1.26 p=14.36
XM96 SRC_BDY_LVC1 24 DRN_LVC1 SRC_BDY_LVC1 sky130_fd_pr__nfet_01v8 L=0.18 W=7 AD=7.875 AS=4.095 PD=16.25 PS=8.17 NRD=14.136 NRS=4.704 m=1 sa=90011.4 sb=90019.9 a=1.26 p=14.36
XM97 DRN_LVC2 25 SRC_BDY_LVC2 SRC_BDY_LVC2 sky130_fd_pr__nfet_01v8 L=0.18 W=7 AD=3.535 AS=3.5 PD=8.01 PS=15 NRD=3.336 NRS=3.42 m=1 sa=90015 sb=90019.9 a=1.26 p=14.36
XM98 DRN_LVC2 25 SRC_BDY_LVC2 SRC_BDY_LVC2 sky130_fd_pr__nfet_01v8 L=0.18 W=7 AD=3.535 AS=3.5 PD=8.01 PS=15 NRD=3.336 NRS=3.42 m=1 sa=90015 sb=90019.9 a=1.26 p=14.36
XM99 DRN_LVC2 25 SRC_BDY_LVC2 SRC_BDY_LVC2 sky130_fd_pr__nfet_01v8 L=0.18 W=7 AD=3.535 AS=3.5 PD=8.01 PS=15 NRD=3.336 NRS=3.42 m=1 sa=90015 sb=90019.9 a=1.26 p=14.36
XM100 DRN_LVC2 25 SRC_BDY_LVC2 SRC_BDY_LVC2 sky130_fd_pr__nfet_01v8 L=0.18 W=7 AD=3.535 AS=3.5 PD=8.01 PS=15 NRD=3.336 NRS=3.42 m=1 sa=90015 sb=90019.9 a=1.26 p=14.36
XM101 DRN_LVC2 25 SRC_BDY_LVC2 SRC_BDY_LVC2 sky130_fd_pr__nfet_01v8 L=0.18 W=5 AD=2.525 AS=2.5 PD=6.01 PS=11 NRD=4.68 NRS=4.8 m=1 sa=90015 sb=90019.9 a=0.9 p=10.36
XM102 DRN_LVC1 24 SRC_BDY_LVC1 SRC_BDY_LVC1 sky130_fd_pr__nfet_01v8 L=0.18 W=7 AD=3.535 AS=3.5 PD=8.01 PS=15 NRD=3.336 NRS=3.42 m=1 sa=90012.2 sb=90019.9 a=1.26 p=14.36
XM103 DRN_LVC1 24 SRC_BDY_LVC1 SRC_BDY_LVC1 sky130_fd_pr__nfet_01v8 L=0.18 W=7 AD=3.535 AS=3.5 PD=8.01 PS=15 NRD=3.336 NRS=3.42 m=1 sa=90015 sb=90019.9 a=1.26 p=14.36
XM104 SRC_BDY_LVC2 25 DRN_LVC2 SRC_BDY_LVC2 sky130_fd_pr__nfet_01v8 L=0.18 W=7 AD=3.5 AS=3.535 PD=15 PS=8.01 NRD=3.42 NRS=3.336 m=1 sa=90016.2 sb=90019.9 a=1.26 p=14.36
XM105 SRC_BDY_LVC2 25 DRN_LVC2 SRC_BDY_LVC2 sky130_fd_pr__nfet_01v8 L=0.18 W=7 AD=3.5 AS=3.535 PD=15 PS=8.01 NRD=3.42 NRS=3.336 m=1 sa=90016.2 sb=90019.9 a=1.26 p=14.36
XM106 SRC_BDY_LVC2 25 DRN_LVC2 SRC_BDY_LVC2 sky130_fd_pr__nfet_01v8 L=0.18 W=7 AD=3.5 AS=3.535 PD=15 PS=8.01 NRD=3.42 NRS=3.336 m=1 sa=90016.2 sb=90019.9 a=1.26 p=14.36
XM107 SRC_BDY_LVC2 25 DRN_LVC2 SRC_BDY_LVC2 sky130_fd_pr__nfet_01v8 L=0.18 W=7 AD=3.5 AS=3.535 PD=15 PS=8.01 NRD=3.42 NRS=3.336 m=1 sa=90016.2 sb=90019.9 a=1.26 p=14.36
XM108 SRC_BDY_LVC2 25 DRN_LVC2 SRC_BDY_LVC2 sky130_fd_pr__nfet_01v8 L=0.18 W=5 AD=2.5 AS=2.525 PD=11 PS=6.01 NRD=4.8 NRS=4.68 m=1 sa=90016.1 sb=90019.9 a=0.9 p=10.36
XM109 SRC_BDY_LVC1 24 DRN_LVC1 SRC_BDY_LVC1 sky130_fd_pr__nfet_01v8 L=0.18 W=7 AD=3.5 AS=3.535 PD=15 PS=8.01 NRD=3.42 NRS=3.336 m=1 sa=90013.4 sb=90019.9 a=1.26 p=14.36
XM110 SRC_BDY_LVC1 24 DRN_LVC1 SRC_BDY_LVC1 sky130_fd_pr__nfet_01v8 L=0.18 W=7 AD=3.5 AS=3.535 PD=15 PS=8.01 NRD=3.42 NRS=3.336 m=1 sa=90016.2 sb=90019.9 a=1.26 p=14.36
XM111 DRN_LVC1 24 SRC_BDY_LVC1 SRC_BDY_LVC1 sky130_fd_pr__nfet_01v8 L=0.18 W=5 AD=2.925 AS=5.625 PD=6.17 PS=12.25 NRD=6.6 NRS=19.788 m=1 sa=90005.9 sb=90019.9 a=0.9 p=10.36
XM112 DRN_LVC1 24 SRC_BDY_LVC1 SRC_BDY_LVC1 sky130_fd_pr__nfet_01v8 L=0.18 W=7 AD=4.095 AS=7.875 PD=8.17 PS=16.25 NRD=4.704 NRS=14.136 m=1 sa=90005.9 sb=90019.9 a=1.26 p=14.36
XM113 DRN_LVC1 24 SRC_BDY_LVC1 SRC_BDY_LVC1 sky130_fd_pr__nfet_01v8 L=0.18 W=7 AD=4.095 AS=7.875 PD=8.17 PS=16.25 NRD=4.704 NRS=14.136 m=1 sa=90014.3 sb=90019.9 a=1.26 p=14.36
XM114 DRN_LVC1 24 SRC_BDY_LVC1 SRC_BDY_LVC1 sky130_fd_pr__nfet_01v8 L=0.18 W=7 AD=4.095 AS=7.875 PD=8.17 PS=16.25 NRD=4.704 NRS=14.136 m=1 sa=90014.3 sb=90019.9 a=1.26 p=14.36
XM115 DRN_LVC1 24 SRC_BDY_LVC1 SRC_BDY_LVC1 sky130_fd_pr__nfet_01v8 L=0.18 W=7 AD=4.095 AS=7.875 PD=8.17 PS=16.25 NRD=4.704 NRS=14.136 m=1 sa=90014.3 sb=90019.9 a=1.26 p=14.36
XM116 DRN_LVC2 25 SRC_BDY_LVC2 SRC_BDY_LVC2 sky130_fd_pr__nfet_01v8 L=0.18 W=7 AD=3.535 AS=3.5 PD=8.01 PS=15 NRD=3.336 NRS=3.42 m=1 sa=90017.7 sb=90019.9 a=1.26 p=14.36
XM117 DRN_LVC2 25 SRC_BDY_LVC2 SRC_BDY_LVC2 sky130_fd_pr__nfet_01v8 L=0.18 W=7 AD=3.535 AS=3.5 PD=8.01 PS=15 NRD=3.336 NRS=3.42 m=1 sa=90017.7 sb=90019.9 a=1.26 p=14.36
XM118 DRN_LVC2 25 SRC_BDY_LVC2 SRC_BDY_LVC2 sky130_fd_pr__nfet_01v8 L=0.18 W=7 AD=3.535 AS=3.5 PD=8.01 PS=15 NRD=3.336 NRS=3.42 m=1 sa=90017.7 sb=90019.9 a=1.26 p=14.36
XM119 DRN_LVC2 25 SRC_BDY_LVC2 SRC_BDY_LVC2 sky130_fd_pr__nfet_01v8 L=0.18 W=7 AD=3.535 AS=3.5 PD=8.01 PS=15 NRD=3.336 NRS=3.42 m=1 sa=90017.7 sb=90019.9 a=1.26 p=14.36
XM120 DRN_LVC2 25 SRC_BDY_LVC2 SRC_BDY_LVC2 sky130_fd_pr__nfet_01v8 L=0.18 W=5 AD=2.525 AS=2.5 PD=6.01 PS=11 NRD=4.68 NRS=4.8 m=1 sa=90017.7 sb=90019.9 a=0.9 p=10.36
XM121 DRN_LVC1 24 SRC_BDY_LVC1 SRC_BDY_LVC1 sky130_fd_pr__nfet_01v8 L=0.18 W=7 AD=3.535 AS=3.5 PD=8.01 PS=15 NRD=3.336 NRS=3.42 m=1 sa=90015 sb=90019.9 a=1.26 p=14.36
XM122 DRN_LVC1 24 SRC_BDY_LVC1 SRC_BDY_LVC1 sky130_fd_pr__nfet_01v8 L=0.18 W=7 AD=3.535 AS=3.5 PD=8.01 PS=15 NRD=3.336 NRS=3.42 m=1 sa=90017.7 sb=90019.9 a=1.26 p=14.36
XM123 SRC_BDY_LVC1 24 DRN_LVC1 SRC_BDY_LVC1 sky130_fd_pr__nfet_01v8 L=0.18 W=5 AD=5.625 AS=2.925 PD=12.25 PS=6.17 NRD=19.788 NRS=6.6 m=1 sa=90007.3 sb=90019.9 a=0.9 p=10.36
XM124 SRC_BDY_LVC1 24 DRN_LVC1 SRC_BDY_LVC1 sky130_fd_pr__nfet_01v8 L=0.18 W=7 AD=7.875 AS=4.095 PD=16.25 PS=8.17 NRD=14.136 NRS=4.704 m=1 sa=90007.3 sb=90019.9 a=1.26 p=14.36
XM125 SRC_BDY_LVC1 24 DRN_LVC1 SRC_BDY_LVC1 sky130_fd_pr__nfet_01v8 L=0.18 W=7 AD=7.875 AS=4.095 PD=16.25 PS=8.17 NRD=14.136 NRS=4.704 m=1 sa=90015.6 sb=90019.9 a=1.26 p=14.36
XM126 SRC_BDY_LVC1 24 DRN_LVC1 SRC_BDY_LVC1 sky130_fd_pr__nfet_01v8 L=0.18 W=7 AD=7.875 AS=4.095 PD=16.25 PS=8.17 NRD=14.136 NRS=4.704 m=1 sa=90015.6 sb=90019.9 a=1.26 p=14.36
XM127 SRC_BDY_LVC1 24 DRN_LVC1 SRC_BDY_LVC1 sky130_fd_pr__nfet_01v8 L=0.18 W=7 AD=7.875 AS=4.095 PD=16.25 PS=8.17 NRD=14.136 NRS=4.704 m=1 sa=90015.6 sb=90019.9 a=1.26 p=14.36
XM128 SRC_BDY_LVC2 25 DRN_LVC2 SRC_BDY_LVC2 sky130_fd_pr__nfet_01v8 L=0.18 W=7 AD=3.5 AS=3.535 PD=15 PS=8.01 NRD=3.42 NRS=3.336 m=1 sa=90018.9 sb=90019.9 a=1.26 p=14.36
XM129 SRC_BDY_LVC2 25 DRN_LVC2 SRC_BDY_LVC2 sky130_fd_pr__nfet_01v8 L=0.18 W=7 AD=3.5 AS=3.535 PD=15 PS=8.01 NRD=3.42 NRS=3.336 m=1 sa=90018.9 sb=90019.9 a=1.26 p=14.36
XM130 SRC_BDY_LVC2 25 DRN_LVC2 SRC_BDY_LVC2 sky130_fd_pr__nfet_01v8 L=0.18 W=7 AD=3.5 AS=3.535 PD=15 PS=8.01 NRD=3.42 NRS=3.336 m=1 sa=90018.9 sb=90019.9 a=1.26 p=14.36
XM131 SRC_BDY_LVC2 25 DRN_LVC2 SRC_BDY_LVC2 sky130_fd_pr__nfet_01v8 L=0.18 W=7 AD=3.5 AS=3.535 PD=15 PS=8.01 NRD=3.42 NRS=3.336 m=1 sa=90018.9 sb=90019.9 a=1.26 p=14.36
XM132 SRC_BDY_LVC2 25 DRN_LVC2 SRC_BDY_LVC2 sky130_fd_pr__nfet_01v8 L=0.18 W=5 AD=2.5 AS=2.525 PD=11 PS=6.01 NRD=4.8 NRS=4.68 m=1 sa=90018.9 sb=90019.9 a=0.9 p=10.36
XM133 SRC_BDY_LVC1 24 DRN_LVC1 SRC_BDY_LVC1 sky130_fd_pr__nfet_01v8 L=0.18 W=7 AD=3.5 AS=3.535 PD=15 PS=8.01 NRD=3.42 NRS=3.336 m=1 sa=90016.2 sb=90019.9 a=1.26 p=14.36
XM134 SRC_BDY_LVC1 24 DRN_LVC1 SRC_BDY_LVC1 sky130_fd_pr__nfet_01v8 L=0.18 W=7 AD=3.5 AS=3.535 PD=15 PS=8.01 NRD=3.42 NRS=3.336 m=1 sa=90018.9 sb=90019.9 a=1.26 p=14.36
XM135 SRC_BDY_LVC2 23 SRC_BDY_LVC2 SRC_BDY_LVC2 sky130_fd_pr__nfet_01v8 L=8 W=5 AD=0.7 AS=0.7 PD=5.28 PS=5.28 NRD=0 NRS=0 m=1 sa=4.00001e+06 sb=4.00002e+06 a=40 p=26
XM136 SRC_BDY_LVC2 23 SRC_BDY_LVC2 SRC_BDY_LVC2 sky130_fd_pr__nfet_01v8 L=8 W=7 AD=0.98 AS=2.3975 PD=7.28 PS=7.685 NRD=0 NRS=0 m=1 sa=4e+06 sb=4.00002e+06 a=56 p=30
XM137 SRC_BDY_LVC2 23 SRC_BDY_LVC2 SRC_BDY_LVC2 sky130_fd_pr__nfet_01v8 L=8 W=7 AD=0.98 AS=2.3975 PD=7.28 PS=7.685 NRD=0 NRS=0 m=1 sa=4e+06 sb=4.00002e+06 a=56 p=30
XM138 SRC_BDY_LVC1 21 SRC_BDY_LVC1 SRC_BDY_LVC1 sky130_fd_pr__nfet_01v8 L=8 W=7 AD=0.98 AS=2.3975 PD=7.28 PS=7.685 NRD=0 NRS=0 m=1 sa=4e+06 sb=4.00002e+06 a=56 p=30
XM139 SRC_BDY_LVC1 21 SRC_BDY_LVC1 SRC_BDY_LVC1 sky130_fd_pr__nfet_01v8 L=8 W=7 AD=0.98 AS=2.3975 PD=7.28 PS=7.685 NRD=0 NRS=0 m=1 sa=4e+06 sb=4.00002e+06 a=56 p=30
XM140 SRC_BDY_LVC1 21 SRC_BDY_LVC1 SRC_BDY_LVC1 sky130_fd_pr__nfet_01v8 L=8 W=7 AD=0.98 AS=2.3975 PD=7.28 PS=7.685 NRD=0 NRS=0 m=1 sa=4e+06 sb=4.00002e+06 a=56 p=30
XM141 DRN_LVC2 25 SRC_BDY_LVC2 SRC_BDY_LVC2 sky130_fd_pr__nfet_01v8 L=0.18 W=7 AD=3.535 AS=3.5 PD=8.01 PS=15 NRD=3.336 NRS=3.42 m=1 sa=90019.9 sb=90019.9 a=1.26 p=14.36
XM142 DRN_LVC2 25 SRC_BDY_LVC2 SRC_BDY_LVC2 sky130_fd_pr__nfet_01v8 L=0.18 W=7 AD=3.535 AS=3.5 PD=8.01 PS=15 NRD=3.336 NRS=3.42 m=1 sa=90019.9 sb=90019.9 a=1.26 p=14.36
XM143 DRN_LVC2 25 SRC_BDY_LVC2 SRC_BDY_LVC2 sky130_fd_pr__nfet_01v8 L=0.18 W=7 AD=3.535 AS=3.5 PD=8.01 PS=15 NRD=3.336 NRS=3.42 m=1 sa=90019.9 sb=90019.9 a=1.26 p=14.36
XM144 DRN_LVC2 25 SRC_BDY_LVC2 SRC_BDY_LVC2 sky130_fd_pr__nfet_01v8 L=0.18 W=7 AD=3.535 AS=3.5 PD=8.01 PS=15 NRD=3.336 NRS=3.42 m=1 sa=90019.9 sb=90019.9 a=1.26 p=14.36
XM145 DRN_LVC2 25 SRC_BDY_LVC2 SRC_BDY_LVC2 sky130_fd_pr__nfet_01v8 L=0.18 W=5 AD=2.525 AS=2.5 PD=6.01 PS=11 NRD=4.68 NRS=4.8 m=1 sa=90019.9 sb=90019.9 a=0.9 p=10.36
XM146 DRN_LVC1 24 SRC_BDY_LVC1 SRC_BDY_LVC1 sky130_fd_pr__nfet_01v8 L=0.18 W=7 AD=3.535 AS=3.5 PD=8.01 PS=15 NRD=3.336 NRS=3.42 m=1 sa=90017.7 sb=90019.9 a=1.26 p=14.36
XM147 DRN_LVC1 24 SRC_BDY_LVC1 SRC_BDY_LVC1 sky130_fd_pr__nfet_01v8 L=0.18 W=7 AD=3.535 AS=3.5 PD=8.01 PS=15 NRD=3.336 NRS=3.42 m=1 sa=90019.9 sb=90019.9 a=1.26 p=14.36