*SPEF "IEEE 1481-1998"
*DESIGN "storage"
*DATE "Wed Nov 11 02:33:53 2020"
*VENDOR "AUC CSCE Department"
*PROGRAM "SPEF Extractor"
*VERSION "1.0"
*DESIGN_FLOW "PIN_CAP NONE"
*DIVIDER /
*DELIMITER :
*BUS_DELIMITER []
*T_UNIT 1.00000 NS
*C_UNIT 1.00000 PF
*R_UNIT 1.00000 OHM
*L_UNIT 1.00000 HENRY


*NAME_MAP
*0 mgmt_addr[0]
*1 mgmt_addr[1]
*2 mgmt_addr[2]
*3 mgmt_addr[3]
*4 mgmt_addr[4]
*5 mgmt_addr[5]
*6 mgmt_addr[6]
*7 mgmt_addr[7]
*8 mgmt_addr_ro[0]
*9 mgmt_addr_ro[1]
*10 mgmt_addr_ro[2]
*11 mgmt_addr_ro[3]
*12 mgmt_addr_ro[4]
*13 mgmt_addr_ro[5]
*14 mgmt_addr_ro[6]
*15 mgmt_addr_ro[7]
*16 mgmt_clk
*17 mgmt_ena[0]
*18 mgmt_ena[1]
*19 mgmt_ena_ro
*20 mgmt_rdata[0]
*21 mgmt_rdata[10]
*22 mgmt_rdata[11]
*23 mgmt_rdata[12]
*24 mgmt_rdata[13]
*25 mgmt_rdata[14]
*26 mgmt_rdata[15]
*27 mgmt_rdata[16]
*28 mgmt_rdata[17]
*29 mgmt_rdata[18]
*30 mgmt_rdata[19]
*31 mgmt_rdata[1]
*32 mgmt_rdata[20]
*33 mgmt_rdata[21]
*34 mgmt_rdata[22]
*35 mgmt_rdata[23]
*36 mgmt_rdata[24]
*37 mgmt_rdata[25]
*38 mgmt_rdata[26]
*39 mgmt_rdata[27]
*40 mgmt_rdata[28]
*41 mgmt_rdata[29]
*42 mgmt_rdata[2]
*43 mgmt_rdata[30]
*44 mgmt_rdata[31]
*45 mgmt_rdata[32]
*46 mgmt_rdata[33]
*47 mgmt_rdata[34]
*48 mgmt_rdata[35]
*49 mgmt_rdata[36]
*50 mgmt_rdata[37]
*51 mgmt_rdata[38]
*52 mgmt_rdata[39]
*53 mgmt_rdata[3]
*54 mgmt_rdata[40]
*55 mgmt_rdata[41]
*56 mgmt_rdata[42]
*57 mgmt_rdata[43]
*58 mgmt_rdata[44]
*59 mgmt_rdata[45]
*60 mgmt_rdata[46]
*61 mgmt_rdata[47]
*62 mgmt_rdata[48]
*63 mgmt_rdata[49]
*64 mgmt_rdata[4]
*65 mgmt_rdata[50]
*66 mgmt_rdata[51]
*67 mgmt_rdata[52]
*68 mgmt_rdata[53]
*69 mgmt_rdata[54]
*70 mgmt_rdata[55]
*71 mgmt_rdata[56]
*72 mgmt_rdata[57]
*73 mgmt_rdata[58]
*74 mgmt_rdata[59]
*75 mgmt_rdata[5]
*76 mgmt_rdata[60]
*77 mgmt_rdata[61]
*78 mgmt_rdata[62]
*79 mgmt_rdata[63]
*80 mgmt_rdata[6]
*81 mgmt_rdata[7]
*82 mgmt_rdata[8]
*83 mgmt_rdata[9]
*84 mgmt_rdata_ro[0]
*85 mgmt_rdata_ro[10]
*86 mgmt_rdata_ro[11]
*87 mgmt_rdata_ro[12]
*88 mgmt_rdata_ro[13]
*89 mgmt_rdata_ro[14]
*90 mgmt_rdata_ro[15]
*91 mgmt_rdata_ro[16]
*92 mgmt_rdata_ro[17]
*93 mgmt_rdata_ro[18]
*94 mgmt_rdata_ro[19]
*95 mgmt_rdata_ro[1]
*96 mgmt_rdata_ro[20]
*97 mgmt_rdata_ro[21]
*98 mgmt_rdata_ro[22]
*99 mgmt_rdata_ro[23]
*100 mgmt_rdata_ro[24]
*101 mgmt_rdata_ro[25]
*102 mgmt_rdata_ro[26]
*103 mgmt_rdata_ro[27]
*104 mgmt_rdata_ro[28]
*105 mgmt_rdata_ro[29]
*106 mgmt_rdata_ro[2]
*107 mgmt_rdata_ro[30]
*108 mgmt_rdata_ro[31]
*109 mgmt_rdata_ro[3]
*110 mgmt_rdata_ro[4]
*111 mgmt_rdata_ro[5]
*112 mgmt_rdata_ro[6]
*113 mgmt_rdata_ro[7]
*114 mgmt_rdata_ro[8]
*115 mgmt_rdata_ro[9]
*116 mgmt_wdata[0]
*117 mgmt_wdata[10]
*118 mgmt_wdata[11]
*119 mgmt_wdata[12]
*120 mgmt_wdata[13]
*121 mgmt_wdata[14]
*122 mgmt_wdata[15]
*123 mgmt_wdata[16]
*124 mgmt_wdata[17]
*125 mgmt_wdata[18]
*126 mgmt_wdata[19]
*127 mgmt_wdata[1]
*128 mgmt_wdata[20]
*129 mgmt_wdata[21]
*130 mgmt_wdata[22]
*131 mgmt_wdata[23]
*132 mgmt_wdata[24]
*133 mgmt_wdata[25]
*134 mgmt_wdata[26]
*135 mgmt_wdata[27]
*136 mgmt_wdata[28]
*137 mgmt_wdata[29]
*138 mgmt_wdata[2]
*139 mgmt_wdata[30]
*140 mgmt_wdata[31]
*141 mgmt_wdata[3]
*142 mgmt_wdata[4]
*143 mgmt_wdata[5]
*144 mgmt_wdata[6]
*145 mgmt_wdata[7]
*146 mgmt_wdata[8]
*147 mgmt_wdata[9]
*148 mgmt_wen[0]
*149 mgmt_wen[1]
*150 mgmt_wen_mask[0]
*151 mgmt_wen_mask[1]
*152 mgmt_wen_mask[2]
*153 mgmt_wen_mask[3]
*154 mgmt_wen_mask[4]
*155 mgmt_wen_mask[5]
*156 mgmt_wen_mask[6]
*157 mgmt_wen_mask[7]

*D_NET *0 0.0784599183269
*CONN
*P mgmt_addr[0] I
*I ANTENNA_SRAM_0_addr0[0]:DIODE I
*I ANTENNA_SRAM_1_addr0[0]:DIODE I
*I SRAM_1:addr0[0] I
*I SRAM_0:addr0[0] I
*CAP
0 *0:1 1.1906903370000003e-05
1 *0:2 1.1906903370000003e-05
2 *0:3 0.00100758454005
3 *0:4 0.00100758454005
4 *0:5 9.797526718e-05
5 *0:6 0.00010988217055
6 *0:7 0.00015934226591
7 SRAM_0:addr0[0] 0.0001399930387
8 *0:8 0.00013354421817
9 *0:9 0.00011419499096
10 *0:10 2.215103505e-05
11 *0:11 2.215103505e-05
12 *0:12 2.3200942060000004e-05
13 *0:13 3.510784543000001e-05
14 *0:14 2.514819011e-05
15 *0:15 2.514819011e-05
16 *0:16 6.156837525e-05
17 *0:17 6.156837525e-05
18 *0:18 0.00028188230127
19 *0:19 0.0003710380106
20 SRAM_1:addr0[0] 8.915570932999999e-05
21 *0:20 0.0014480048315200001
22 *0:21 0.0014480048315200001
23 *0:22 0.0153060236968
24 *0:23 0.0153060236968
25 ANTENNA_SRAM_0_addr0[0]:DIODE 0.0002980426472
26 *0:24 0.0002980426472
27 ANTENNA_SRAM_1_addr0[0]:DIODE 0.0002980426472
28 *0:25 0.0002980426472
29 *0:26 0.01866225927666
30 *0:27 0.01866225927666
31 *0:28 0.00131156864016
32 *0:29 0.00131156864016
33 *0:30 0.0
34 *0:31 0.0
*RES
0 *0:1 *0:2 0.15178571428571427
1 *0:3 *0:4 3.6393666666666666
2 *0:5 *0:6 2.1249999999999996
3 *0:7 SRAM_0:addr0[0] 0.5326666666666667
4 *0:8 *0:7 0.034466666666666666
5 *0:9 *0:8 0.42613333333333336
6 *0:10 *0:11 0.036033333333333334
7 *0:12 *0:13 0.4107142857142857
8 *0:6 *0:13 0.15178571428571427
9 *0:14 *0:15 0.45535714285714285
10 *0:16 *0:17 0.18016666666666664
11 *0:18 *0:19 1.1186
12 *0:19 SRAM_1:addr0[0] 0.32273333333333337
13 *0:20 *0:21 30.39285714285714
14 *0:22 *0:23 322.4107142857143
15 ANTENNA_SRAM_0_addr0[0]:DIODE *0:24 6.160714285714286
16 ANTENNA_SRAM_1_addr0[0]:DIODE *0:25 6.160714285714286
17 *0:26 *0:27 427.73214285714283
18 *0:28 *0:29 27.51785714285714
19 *0:23 *0:2 0
20 *0:1 *0:3 0
21 *0:21 *0:6 0
22 *0:22 *0:5 0
23 *0:11 *0:9 0
24 *0:12 *0:10 0
25 *0:29 *0:14 0
26 *0:15 *0:16 0
27 *0:17 *0:18 0
28 *0:20 *0:26 0
29 ANTENNA_SRAM_0_addr0[0]:DIODE ANTENNA_SRAM_0_addr0[0]:DIODE 0
30 *0:24 *0:30 0
31 *0:25 *0:27 0
32 ANTENNA_SRAM_1_addr0[0]:DIODE ANTENNA_SRAM_1_addr0[0]:DIODE 0
33 *0:28 *0:31 0
*END

*D_NET *1 0.10505336783643002
*CONN
*P mgmt_addr[1] I
*I ANTENNA_SRAM_0_addr0[1]:DIODE I
*I ANTENNA_SRAM_1_addr0[1]:DIODE I
*I SRAM_1:addr0[1] I
*I SRAM_0:addr0[1] I
*CAP
35 ANTENNA_SRAM_1_addr0[1]:DIODE 2.5170264480000005e-05
36 *1:1 2.5170264480000005e-05
37 *1:2 0.00037870678777499994
38 SRAM_1:addr0[1] 6.092570122499999e-05
39 *1:3 0.00031778108654999997
40 *1:4 0.01833651336816
41 *1:5 2.514819011e-05
42 *1:6 0.00015756105751
43 *1:7 0.00015756105751
44 *1:8 0.00100758454005
45 *1:9 0.00100758454005
46 *1:10 0.016572931188
47 *1:11 0.016572931188
48 *1:12 0.00045396972304
49 *1:13 0.00045396972304
50 *1:14 0.00077328089092
51 *1:15 0.00077328089092
52 ANTENNA_SRAM_0_addr0[1]:DIODE 2.5170264480000005e-05
53 *1:16 2.5170264480000005e-05
54 *1:17 0.00039263139165
55 SRAM_0:addr0[1] 7.48503051e-05
56 *1:18 0.00031778108654999997
57 *1:19 0.0032480671279300002
58 *1:20 0.01833651336816
59 *1:21 6.330460368e-05
60 *1:22 6.330460368e-05
61 *1:23 0.00747337198136
62 *1:24 0.00747337198136
63 *1:25 7.771090959999999e-05
64 *1:26 7.771090959999999e-05
65 *1:27 0.00354070981958
66 *1:28 0.00354070981958
67 *1:29 0.0032229189378200004
*RES
34 ANTENNA_SRAM_1_addr0[1]:DIODE *1:1 0.4107142857142857
35 *1:2 SRAM_1:addr0[1] 0.17781666666666668
36 *1:3 *1:2 1.1170333333333335
37 *1:4 *1:5 0.45535714285714285
38 *1:6 *1:7 3.4910714285714284
39 *1:8 *1:9 3.6393666666666666
40 *1:10 *1:11 349.10714285714283
41 *1:12 *1:13 9.446428571428571
42 *1:14 *1:15 17.607142857142854
43 ANTENNA_SRAM_0_addr0[1]:DIODE *1:16 0.4107142857142857
44 *1:17 SRAM_0:addr0[1] 0.22873333333333334
45 *1:18 *1:17 1.1170333333333335
46 *1:19 *1:20 0.45535714285714285
47 *1:20 *1:4 419.68749999999994
48 *1:21 *1:22 1.2142857142857142
49 *1:23 *1:24 171.2142857142857
50 *1:25 *1:26 1.5178571428571426
51 *1:27 *1:28 81.05357142857142
52 *1:29 *1:19 73.76785714285714
53 ANTENNA_SRAM_1_addr0[1]:DIODE ANTENNA_SRAM_1_addr0[1]:DIODE 0
54 *1:1 *1:4 0
55 *1:5 *1:3 0
56 *1:11 *1:7 0
57 *1:6 *1:8 0
58 *1:10 *1:14 0
59 *1:12 *1:23 0
60 *1:13 *1:15 0
61 ANTENNA_SRAM_0_addr0[1]:DIODE ANTENNA_SRAM_0_addr0[1]:DIODE 0
62 *1:16 *1:19 0
63 *1:20 *1:18 0
64 *1:21 *1:24 0
65 *1:22 *1:27 0
66 *1:25 *1:28 0
67 *1:26 *1:29 0
*END

*D_NET *2 0.10668779665444997
*CONN
*P mgmt_addr[2] I
*I ANTENNA_SRAM_0_addr0[2]:DIODE I
*I ANTENNA_SRAM_1_addr0[2]:DIODE I
*I SRAM_1:addr0[2] I
*I SRAM_0:addr0[2] I
*CAP
68 *2:1 4.466114896e-05
69 ANTENNA_SRAM_1_addr0[2]:DIODE 4.466114896e-05
70 *2:2 0.00047210874607500007
71 SRAM_1:addr0[2] 7.5492979125e-05
72 *2:3 0.00039661576695000005
73 *2:4 0.01821072114413
74 *2:5 2.514819011e-05
75 *2:6 0.0166703856104
76 *2:7 0.0166703856104
77 ANTENNA_SRAM_0_addr0[2]:DIODE 0.00022126871215999997
78 *2:8 0.00018109734031999995
79 SRAM_0:addr0[2] 2.25794844e-05
80 *2:9 0.00041919525135000003
81 *2:10 0.00039661576695000005
82 *2:11 5.1630763590000006e-05
83 *2:12 0.01823720371761
84 *2:13 0.01559028075298
85 *2:14 0.01559028075298
86 *2:15 0.00010459591055000001
87 *2:16 0.00010459591055000001
88 *2:17 0.0015791359729499998
89 *2:18 0.0015791359729499998
90 *2:19 0.0
*RES
68 *2:1 ANTENNA_SRAM_1_addr0[2]:DIODE 0.8214285714285714
69 *2:2 SRAM_1:addr0[2] 0.23108333333333334
70 *2:3 *2:2 1.4053000000000002
71 *2:4 *2:5 0.45535714285714285
72 *2:6 *2:7 351.1607142857143
73 ANTENNA_SRAM_0_addr0[2]:DIODE ANTENNA_SRAM_0_addr0[2]:DIODE 0.30357142857142855
74 *2:8 ANTENNA_SRAM_0_addr0[2]:DIODE 3.6964285714285707
75 SRAM_0:addr0[2] *2:9 0.0376
76 *2:10 *2:9 1.4053000000000002
77 *2:11 *2:12 1.0624999999999998
78 *2:13 *2:14 357.3035714285714
79 *2:12 *2:4 416.8035714285714
80 *2:15 *2:16 2.276785714285714
81 *2:17 *2:18 5.7293
82 ANTENNA_SRAM_1_addr0[2]:DIODE ANTENNA_SRAM_1_addr0[2]:DIODE 0
83 *2:1 *2:4 0
84 *2:5 *2:3 0
85 *2:7 *2:15 0
86 *2:6 *2:13 0
87 ANTENNA_SRAM_0_addr0[2]:DIODE ANTENNA_SRAM_0_addr0[2]:DIODE 0
88 *2:8 *2:14 0
89 *2:19 *2:12 0
90 *2:11 *2:10 0
91 *2:16 *2:17 0
*END

*D_NET *3 0.10888177125338999
*CONN
*P mgmt_addr[3] I
*I ANTENNA_SRAM_0_addr0[3]:DIODE I
*I ANTENNA_SRAM_1_addr0[3]:DIODE I
*I SRAM_1:addr0[3] I
*I SRAM_0:addr0[3] I
*CAP
91 *3:1 0.0001031338024
92 *3:2 0.0012578060333800001
93 *3:3 0.0001031338024
94 *3:4 0.00128761781886
95 *3:5 0.0001031338024
96 *3:6 0.00127271192612
97 ANTENNA_SRAM_1_addr0[3]:DIODE 2.5170264480000005e-05
98 *3:7 2.5170264480000005e-05
99 *3:8 0.0004952138693800001
100 *3:9 0.0005203620594900001
101 *3:10 8.364291792e-05
102 *3:11 0.00020980854984000002
103 *3:12 0.000401843052675
104 SRAM_1:addr0[3] 8.4061966125e-05
105 *3:13 0.00031778108654999997
106 *3:14 2.514819011e-05
107 *3:15 0.0009878758699499999
108 *3:16 0.0009878758699499999
109 *3:17 0.00031645649839
110 *3:18 0.00031645649839
111 *3:19 0.00012262468688
112 *3:20 0.00020407264058
113 *3:21 0.0170602033
114 *3:22 0.0170602033
115 SRAM_0:addr0[3] 0.00036551075145
116 *3:23 0.00033748975665
117 *3:24 0.0001031338024
118 *3:25 0.0012578060333800001
119 *3:26 0.00249464816712
120 *3:27 0.00249464816712
121 *3:28 0.0001031338024
122 *3:29 0.00128761781886
123 *3:30 0.00248140688038
124 *3:31 0.00248140688038
125 *3:32 0.0016604471025
126 *3:33 0.0016604471025
127 *3:34 0.00116957812372
128 *3:35 8.14479537e-05
129 *3:36 0.00012262468688
130 *3:37 0.0002487903188
131 *3:38 0.00350098595936
132 *3:39 0.00350098595936
133 *3:40 0.020079076957840003
134 *3:41 0.020079076957840003
135 ANTENNA_SRAM_0_addr0[3]:DIODE 0.0
136 *3:42 0.0
137 *3:43 0.0
*RES
92 *3:1 *3:2 2.0535714285714284
93 *3:3 *3:4 2.0535714285714284
94 *3:5 *3:6 2.0535714285714284
95 ANTENNA_SRAM_1_addr0[3]:DIODE *3:7 0.4107142857142857
96 *3:8 *3:9 11.232142857142856
97 *3:10 *3:11 1.6428571428571428
98 *3:12 SRAM_1:addr0[3] 0.2624166666666667
99 *3:13 *3:12 1.1170333333333335
100 *3:9 *3:14 0.45535714285714285
101 *3:15 *3:16 3.5673
102 *3:17 *3:18 7.133928571428571
103 *3:19 *3:20 2.464285714285714
104 *3:21 *3:22 359.37499999999994
105 SRAM_0:addr0[3] SRAM_0:addr0[3] 0.006266666666666667
106 *3:23 SRAM_0:addr0[3] 1.1891
107 *3:24 *3:25 2.0535714285714284
108 *3:26 *3:27 57.07142857142857
109 *3:2 *3:25 1878.7999999999997
110 *3:28 *3:29 2.0535714285714284
111 *3:30 *3:31 56.76785714285714
112 *3:4 *3:29 1927.5999999999997
113 *3:32 *3:33 37.94642857142857
114 *3:6 *3:34 1903.1999999999998
115 *3:35 *3:20 121.99999999999999
116 *3:36 *3:37 2.464285714285714
117 *3:38 *3:39 80.14285714285714
118 *3:37 *3:11 195.19999999999996
119 *3:40 *3:41 460.2142857142857
120 *3:1 *3:41 0
121 *3:2 *3:2 0
122 *3:3 *3:27 0
123 *3:4 *3:4 0
124 *3:5 *3:31 0
125 *3:6 *3:6 0
126 ANTENNA_SRAM_1_addr0[3]:DIODE ANTENNA_SRAM_1_addr0[3]:DIODE 0
127 *3:7 *3:9 0
128 *3:10 *3:8 0
129 *3:11 *3:11 0
130 *3:14 *3:13 0
131 *3:22 *3:17 0
132 *3:18 *3:15 0
133 *3:21 *3:40 0
134 *3:19 *3:38 0
135 *3:20 *3:20 0
136 ANTENNA_SRAM_0_addr0[3]:DIODE ANTENNA_SRAM_0_addr0[3]:DIODE 0
137 ANTENNA_SRAM_0_addr0[3]:DIODE *3:42 0
138 *3:43 *3:23 0
139 *3:24 *3:26 0
140 *3:25 *3:25 0
141 *3:28 *3:30 0
142 *3:29 *3:29 0
143 *3:34 *3:34 0
144 *3:34 *3:32 0
145 *3:35 *3:35 0
146 *3:35 *3:33 0
147 *3:36 *3:39 0
148 *3:37 *3:37 0
*END

*D_NET *4 0.10821711032115001
*CONN
*P mgmt_addr[4] I
*I ANTENNA_SRAM_0_addr0[4]:DIODE I
*I ANTENNA_SRAM_1_addr0[4]:DIODE I
*I SRAM_1:addr0[4] I
*I SRAM_0:addr0[4] I
*CAP
138 ANTENNA_SRAM_1_addr0[4]:DIODE 0.0001031338024
139 *4:1 0.0001031338024
140 SRAM_1:addr0[4] 0.00026568205289999997
141 *4:2 0.00023894640615
142 ANTENNA_SRAM_0_addr0[4]:DIODE 0.0001031338024
143 *4:3 0.0001031338024
144 *4:4 0.00026409658664999997
145 SRAM_0:addr0[4] 2.51501805e-05
146 *4:5 0.00023894640615
147 *4:6 0.00025865507624999996
148 *4:7 0.00030008633204999994
149 *4:8 0.0007632400793999999
150 *4:9 0.0007218088235999999
151 *4:10 0.0005879028765600001
152 *4:11 0.0005879028765600001
153 *4:12 7.142271029999999e-05
154 *4:13 7.142271029999999e-05
155 *4:14 0.00170679160609
156 *4:15 0.00170679160609
157 *4:16 2.008568592e-05
158 *4:17 8.423771936000001e-05
159 *4:18 6.415203344e-05
160 *4:19 0.028188030702719996
161 *4:20 0.01206147783677
162 *4:21 0.00454704761182
163 *4:22 0.00454704761182
164 *4:23 0.016126552865949998
165 *4:24 0.0171785483571
166 *4:25 0.0171785483571
167 *4:26 0.0
168 *4:27 0.0
*RES
149 ANTENNA_SRAM_1_addr0[4]:DIODE *4:1 2.0535714285714284
150 SRAM_1:addr0[4] SRAM_1:addr0[4] 0.003916666666666667
151 *4:2 SRAM_1:addr0[4] 0.8287666666666667
152 ANTENNA_SRAM_0_addr0[4]:DIODE *4:3 2.0535714285714284
153 *4:4 SRAM_0:addr0[4] 0.047
154 *4:5 *4:4 0.8287666666666667
155 *4:6 *4:7 0.9008333333333334
156 *4:7 *4:8 0.10653333333333334
157 *4:8 *4:9 2.5944
158 *4:10 *4:11 13.357142857142856
159 *4:12 *4:13 0.2162
160 *4:14 *4:15 39.00892857142856
161 *4:16 *4:17 0.30357142857142855
162 *4:17 *4:18 1.232142857142857
163 *4:19 *4:20 276.40178571428567
164 *4:21 *4:22 104.125
165 *4:23 *4:19 369.5982142857142
166 *4:24 *4:25 62.77006666666668
167 *4:1 *4:22 0
168 ANTENNA_SRAM_1_addr0[4]:DIODE ANTENNA_SRAM_1_addr0[4]:DIODE 0
169 *4:26 *4:2 0
170 ANTENNA_SRAM_0_addr0[4]:DIODE ANTENNA_SRAM_0_addr0[4]:DIODE 0
171 *4:3 *4:19 0
172 *4:27 *4:5 0
173 *4:10 *4:25 0
174 *4:11 *4:6 0
175 *4:23 *4:24 0
176 *4:20 *4:13 0
177 *4:14 *4:12 0
178 *4:16 *4:15 0
179 *4:18 *4:21 0
*END

*D_NET *5 0.10907739567154999
*CONN
*P mgmt_addr[5] I
*I ANTENNA_SRAM_0_addr0[5]:DIODE I
*I ANTENNA_SRAM_1_addr0[5]:DIODE I
*I SRAM_1:addr0[5] I
*I SRAM_0:addr0[5] I
*CAP
169 *5:1 5.1630763590000006e-05
170 *5:2 5.1630763590000006e-05
171 *5:3 0.00033748975665
172 *5:4 0.00035728432027499996
173 SRAM_1:addr0[5] 1.9794563624999995e-05
174 ANTENNA_SRAM_0_addr0[5]:DIODE 0.00014211557136
175 *5:5 0.00014211557136
176 SRAM_0:addr0[5] 2.00087883e-05
177 *5:6 0.00021953785424999998
178 *5:7 0.00019952906594999998
179 *5:8 0.016376802930640002
180 *5:9 2.514819011e-05
181 *5:10 0.00017982039585
182 *5:11 0.00022125165165
183 *5:12 0.0007632400793999999
184 *5:13 0.0007218088235999999
185 *5:14 0.0009056937583200002
186 *5:15 0.0009056937583200002
187 *5:16 0.01832460646479
188 *5:17 0.01832460646479
189 *5:18 0.016351654740530002
190 *5:19 0.0172179656973
191 *5:20 0.0172179656973
192 ANTENNA_SRAM_1_addr0[5]:DIODE 0.0
193 *5:21 0.0
194 *5:22 0.0
*RES
180 *5:1 *5:2 1.0624999999999998
181 *5:3 *5:4 1.1891
182 *5:4 SRAM_1:addr0[5] 0.027416666666666666
183 ANTENNA_SRAM_0_addr0[5]:DIODE *5:5 2.875
184 SRAM_0:addr0[5] *5:6 0.028200000000000003
185 *5:7 *5:6 0.6846333333333334
186 *5:8 *5:9 0.45535714285714285
187 *5:10 *5:11 0.6125666666666667
188 *5:12 *5:11 0.10653333333333334
189 *5:12 *5:13 2.5944
190 *5:14 *5:15 20.642857142857142
191 *5:16 *5:17 419.9910714285714
192 *5:18 *5:8 374.75892857142856
193 *5:19 *5:20 62.9142
194 ANTENNA_SRAM_1_addr0[5]:DIODE ANTENNA_SRAM_1_addr0[5]:DIODE 0
195 ANTENNA_SRAM_1_addr0[5]:DIODE *5:2 0
196 *5:1 *5:3 0
197 *5:17 *5:21 0
198 ANTENNA_SRAM_0_addr0[5]:DIODE ANTENNA_SRAM_0_addr0[5]:DIODE 0
199 *5:5 *5:8 0
200 *5:9 *5:7 0
201 *5:22 *5:16 0
202 *5:14 *5:20 0
203 *5:15 *5:10 0
204 *5:18 *5:19 0
*END

*D_NET *6 0.11304954726937001
*CONN
*P mgmt_addr[6] I
*I ANTENNA_SRAM_0_addr0[6]:DIODE I
*I ANTENNA_SRAM_1_addr0[6]:DIODE I
*I SRAM_1:addr0[6] I
*I SRAM_0:addr0[6] I
*CAP
195 *6:1 4.466114896e-05
196 *6:2 4.466114896e-05
197 ANTENNA_SRAM_0_addr0[6]:DIODE 4.466114896e-05
198 *6:3 4.466114896e-05
199 *6:4 0.00031722430605
200 SRAM_0:addr0[6] 1.9151889599999998e-05
201 *6:5 0.00029807241645
202 *6:6 8.364291792e-05
203 *6:7 0.0012085033634200001
204 *6:8 8.364291792e-05
205 *6:9 0.0012085033634200001
206 *6:10 8.364291792e-05
207 *6:11 0.00122340925616
208 *6:12 0.0002753982548
209 *6:13 1.1906903370000003e-05
210 *6:14 0.00033748975665
211 *6:15 0.000356855870925
212 SRAM_1:addr0[6] 1.9366114274999996e-05
213 *6:16 0.00030460697555
214 *6:17 0.00308527719095
215 *6:18 1.1906903370000003e-05
216 *6:19 1.1906903370000003e-05
217 *6:20 0.00077108049885
218 *6:21 0.00077108049885
219 *6:22 6.415203344e-05
220 *6:23 0.00011578820166
221 *6:24 4.466114896e-05
222 *6:25 4.466114896e-05
223 *6:26 0.00164720581576
224 *6:27 0.00164720581576
225 *6:28 0.00164720581576
226 *6:29 0.00164720581576
227 *6:30 8.364291792e-05
228 *6:31 0.0012085033634200001
229 *6:32 0.0025211307405999996
230 *6:33 0.0025211307405999996
231 *6:34 8.364291792e-05
232 *6:35 0.0012085033634200001
233 *6:36 0.00253437202734
234 *6:37 0.00253437202734
235 *6:38 4.466114896e-05
236 *6:39 4.466114896e-05
237 *6:40 0.0017266535362000003
238 *6:41 0.0017266535362000003
239 *6:42 0.00012262468688
240 *6:43 0.00126239102512
241 *6:44 0.00173989482294
242 *6:45 0.00173989482294
243 *6:46 6.415203344e-05
244 *6:47 0.00011578820166
245 *6:48 0.00304416156683
246 *6:49 0.0011374162762700002
247 *6:50 0.0011374162762700002
248 *6:51 0.0005319332609600001
249 *6:52 0.0005319332609600001
250 *6:53 6.330460368e-05
251 *6:54 6.330460368e-05
252 *6:55 0.008340676262829999
253 *6:56 0.008340676262829999
254 *6:57 2.215103505e-05
255 *6:58 6.358229085e-05
256 *6:59 6.358229085e-05
257 *6:60 2.215103505e-05
258 *6:61 5.825140696e-05
259 *6:62 8.145234902e-05
260 *6:63 0.00494762522597
261 *6:64 0.0035340891762100004
262 *6:65 0.0035340891762100004
263 *6:66 0.004924424283910001
264 *6:67 0.0169026269757
265 *6:68 0.0169026269757
266 *6:69 0.0
267 *6:70 0.0
268 ANTENNA_SRAM_1_addr0[6]:DIODE 0.0
*RES
205 *6:1 *6:2 0.8214285714285714
206 ANTENNA_SRAM_0_addr0[6]:DIODE *6:3 0.8214285714285714
207 *6:4 SRAM_0:addr0[6] 0.025066666666666668
208 *6:5 *6:4 1.0449666666666666
209 *6:6 *6:7 1.6428571428571428
210 *6:8 *6:9 1.6428571428571428
211 *6:10 *6:11 1.6428571428571428
212 *6:12 *6:13 0.15178571428571427
213 *6:14 *6:15 1.1891
214 SRAM_1:addr0[6] *6:15 0.02585
215 *6:16 *6:17 0.8214285714285714
216 *6:16 *6:12 5.919642857142857
217 *6:18 *6:19 0.15178571428571427
218 *6:20 *6:21 2.774566666666667
219 *6:22 *6:23 1.232142857142857
220 *6:24 *6:25 0.8214285714285714
221 *6:26 *6:27 37.64285714285714
222 *6:28 *6:29 37.64285714285714
223 *6:30 *6:31 1.6428571428571428
224 *6:32 *6:33 57.678571428571416
225 *6:7 *6:31 1829.9999999999998
226 *6:34 *6:35 1.6428571428571428
227 *6:36 *6:37 57.98214285714285
228 *6:9 *6:35 1829.9999999999998
229 *6:38 *6:39 0.8214285714285714
230 *6:40 *6:41 39.464285714285715
231 *6:42 *6:43 2.464285714285714
232 *6:44 *6:45 39.76785714285714
233 *6:11 *6:43 1854.3999999999999
234 *6:46 *6:47 1.232142857142857
235 *6:48 *6:17 69.66964285714285
236 *6:23 *6:47 73.19999999999999
237 *6:49 *6:50 25.955357142857142
238 *6:51 *6:52 11.089285714285714
239 *6:53 *6:54 1.2142857142857142
240 *6:55 *6:56 191.09821428571428
241 *6:57 *6:58 0.036033333333333334
242 *6:58 *6:59 0.10653333333333334
243 *6:59 *6:60 0.036033333333333334
244 *6:61 *6:62 1.2142857142857142
245 *6:63 *6:62 0.4107142857142857
246 *6:64 *6:65 80.90178571428571
247 *6:63 *6:66 112.77678571428571
248 *6:67 *6:68 61.76113333333333
249 *6:1 *6:66 0
250 *6:2 *6:28 0
251 ANTENNA_SRAM_0_addr0[6]:DIODE ANTENNA_SRAM_0_addr0[6]:DIODE 0
252 *6:3 *6:69 0
253 *6:70 *6:5 0
254 *6:6 *6:27 0
255 *6:7 *6:7 0
256 *6:8 *6:33 0
257 *6:9 *6:9 0
258 *6:10 *6:37 0
259 *6:11 *6:11 0
260 ANTENNA_SRAM_1_addr0[6]:DIODE ANTENNA_SRAM_1_addr0[6]:DIODE 0
261 ANTENNA_SRAM_1_addr0[6]:DIODE *6:12 0
262 *6:13 *6:14 0
263 *6:49 *6:68 0
264 *6:52 *6:18 0
265 *6:19 *6:20 0
266 *6:55 *6:67 0
267 *6:22 *6:45 0
268 *6:23 *6:23 0
269 *6:24 *6:26 0
270 *6:25 *6:29 0
271 *6:30 *6:32 0
272 *6:31 *6:31 0
273 *6:34 *6:36 0
274 *6:35 *6:35 0
275 *6:39 *6:44 0
276 *6:38 *6:41 0
277 *6:42 *6:40 0
278 *6:43 *6:43 0
279 *6:46 *6:48 0
280 *6:47 *6:47 0
281 *6:51 *6:50 0
282 *6:53 *6:56 0
283 *6:54 *6:64 0
284 *6:65 *6:57 0
285 *6:61 *6:60 0
*END

*D_NET *7 0.11280947203842999
*CONN
*P mgmt_addr[7] I
*I ANTENNA_SRAM_0_addr0[7]:DIODE I
*I ANTENNA_SRAM_1_addr0[7]:DIODE I
*I SRAM_1:addr0[7] I
*I SRAM_0:addr0[7] I
*CAP
269 *7:1 0.00016418170087999999
270 *7:2 0.00016418170087999999
271 *7:3 2.215103505e-05
272 *7:4 2.215103505e-05
273 *7:5 0.00122348464008
274 *7:6 0.00122348464008
275 *7:7 0.00100758454005
276 *7:8 0.00100758454005
277 *7:9 6.259889548e-05
278 *7:10 6.259889548e-05
279 *7:11 0.00729465030195
280 *7:12 0.00729465030195
281 *7:13 0.00023956999375999996
282 *7:14 0.00023956999375999996
283 *7:15 0.00025865507624999996
284 SRAM_1:addr0[7] 0.0002862476216999999
285 ANTENNA_SRAM_1_addr0[7]:DIODE 8.364291792e-05
286 *7:16 8.364291792e-05
287 *7:17 0.01662972176207
288 *7:18 0.01662972176207
289 *7:19 0.0008048056436799999
290 *7:20 0.0008048056436799999
291 *7:21 1.1906903370000003e-05
292 *7:22 1.1906903370000003e-05
293 *7:23 1.1906903370000003e-05
294 *7:24 1.1906903370000003e-05
295 *7:25 0.0015844410228799998
296 *7:26 0.0015844410228799998
297 *7:27 0.00015756105751
298 *7:28 0.00015756105751
299 *7:29 0.0016284076481999997
300 *7:30 0.0016284076481999997
301 ANTENNA_SRAM_0_addr0[7]:DIODE 0.00030491163007999994
302 *7:31 0.00012262468688
303 *7:32 0.00035492784885
304 SRAM_0:addr0[7] 5.68554324e-05
305 *7:33 0.00029807241645
306 *7:34 0.00168364804456
307 *7:35 8.145234902e-05
308 *7:36 5.825140696e-05
309 *7:37 0.00014211557136
310 *7:38 0.0016604471025
311 *7:39 0.01676875527284
312 *7:40 0.01676875527284
313 *7:41 0.00130522850715
314 *7:42 0.0009898897855500001
315 *7:43 0.0009484585297500001
316 *7:44 0.0003296493371999999
317 *7:45 0.00130522850715
318 *7:46 0.00028821808139999994
319 *7:47 4.111562412000001e-05
320 *7:48 4.111562412000001e-05
321 *7:49 0.0014431891978499997
322 *7:50 0.00016212564134999996
323 *7:51 0.00016212564134999996
324 *7:52 0.001866925605
325 *7:53 0.0014017579420499996
326 *7:54 0.0018254943491999999
327 *7:55 0.0
328 *7:56 0.0
*RES
286 *7:1 *7:2 3.642857142857143
287 *7:3 *7:4 0.036033333333333334
288 *7:5 *7:6 27.928571428571427
289 *7:7 *7:8 3.6393666666666666
290 *7:9 *7:10 0.21306666666666668
291 *7:11 *7:12 26.628633333333337
292 *7:13 *7:14 4.928571428571428
293 *7:15 SRAM_1:addr0[7] 0.9008333333333334
294 SRAM_1:addr0[7] SRAM_1:addr0[7] 0.005483333333333334
295 ANTENNA_SRAM_1_addr0[7]:DIODE *7:16 1.6428571428571428
296 *7:17 *7:18 381.13392857142856
297 *7:19 *7:20 16.83928571428571
298 *7:21 *7:22 0.15178571428571427
299 *7:23 *7:24 0.15178571428571427
300 *7:25 *7:26 33.26785714285714
301 *7:27 *7:28 3.4910714285714284
302 *7:29 *7:30 5.909466666666667
303 ANTENNA_SRAM_0_addr0[7]:DIODE *7:31 2.464285714285714
304 *7:32 SRAM_0:addr0[7] 0.16293333333333335
305 *7:33 *7:32 1.0449666666666666
306 *7:34 *7:35 0.4107142857142857
307 *7:36 *7:35 1.2142857142857142
308 *7:37 ANTENNA_SRAM_0_addr0[7]:DIODE 2.875
309 ANTENNA_SRAM_0_addr0[7]:DIODE ANTENNA_SRAM_0_addr0[7]:DIODE 0.30357142857142855
310 *7:34 *7:38 37.94642857142857
311 *7:39 *7:40 384.32142857142856
312 *7:41 *7:42 0.10653333333333334
313 *7:43 *7:42 3.423166666666667
314 *7:44 *7:45 0.10653333333333334
315 *7:44 *7:46 1.0089333333333335
316 *7:47 *7:48 0.8214285714285714
317 *7:41 *7:45 4.576233333333334
318 *7:49 *7:50 0.10653333333333334
319 *7:50 *7:51 0.39636666666666664
320 *7:52 *7:51 0.10653333333333334
321 *7:53 *7:49 5.0807
322 *7:52 *7:54 6.630133333333333
323 *7:1 *7:30 0
324 *7:2 *7:11 0
325 *7:12 *7:9 0
326 *7:4 *7:10 0
327 *7:5 *7:3 0
328 *7:6 *7:7 0
329 *7:13 *7:38 0
330 *7:14 *7:17 0
331 *7:18 *7:15 0
332 ANTENNA_SRAM_1_addr0[7]:DIODE ANTENNA_SRAM_1_addr0[7]:DIODE 0
333 *7:16 *7:55 0
334 *7:19 *7:39 0
335 *7:20 *7:22 0
336 *7:21 *7:43 0
337 *7:24 *7:54 0
338 *7:25 *7:23 0
339 *7:26 *7:28 0
340 *7:27 *7:29 0
341 ANTENNA_SRAM_0_addr0[7]:DIODE ANTENNA_SRAM_0_addr0[7]:DIODE 0
342 *7:31 *7:40 0
343 *7:56 *7:33 0
344 *7:37 *7:36 0
345 *7:47 *7:46 0
346 *7:48 *7:53 0
*END

*D_NET *8 0.03897449356962
*CONN
*P mgmt_addr_ro[0] I
*I ANTENNA_SRAM_0_addr1[0]:DIODE I
*I SRAM_0:addr1[0] I
*CAP
329 *8:1 8.364291792e-05
330 *8:2 8.364291792e-05
331 *8:3 0.00096816719985
332 *8:4 0.00096816719985
333 *8:5 0.0007666602475500001
334 *8:6 0.0007666602475500001
335 *8:7 0.015404902738620002
336 *8:8 0.015404902738620002
337 *8:9 2.215103505e-05
338 *8:10 2.215103505e-05
339 *8:11 6.487205033e-05
340 *8:12 6.487205033e-05
341 SRAM_0:addr1[0] 4.666480717e-05
342 *8:13 4.666480717e-05
343 *8:14 0.0021301857883199997
344 ANTENNA_SRAM_0_addr1[0]:DIODE 0.0021301857883199997
*RES
347 *8:1 *8:2 1.6428571428571428
348 *8:3 *8:4 3.4952333333333336
349 *8:5 *8:6 17.455357142857142
350 *8:7 *8:8 353.0535714285714
351 *8:9 *8:10 0.036033333333333334
352 *8:11 *8:12 1.3660714285714284
353 SRAM_0:addr1[0] *8:13 0.14726666666666666
354 *8:14 ANTENNA_SRAM_0_addr1[0]:DIODE 44.76785714285714
355 *8:1 *8:7 0
356 *8:2 *8:6 0
357 *8:5 *8:3 0
358 ANTENNA_SRAM_0_addr1[0]:DIODE ANTENNA_SRAM_0_addr1[0]:DIODE 0
359 ANTENNA_SRAM_0_addr1[0]:DIODE *8:8 0
360 *8:9 *8:13 0
361 *8:11 *8:10 0
362 *8:14 *8:12 0
*END

*D_NET *9 0.01107857763551
*CONN
*P mgmt_addr_ro[1] I
*I ANTENNA_SRAM_0_addr1[1]:DIODE I
*I SRAM_0:addr1[1] I
*CAP
345 *9:1 0.00046139751232499997
346 SRAM_0:addr1[1] 4.5073075275e-05
347 ANTENNA_SRAM_0_addr1[1]:DIODE 0.00045396972304
348 *9:2 0.00045396972304
349 *9:3 1.1906903370000003e-05
350 *9:4 1.1906903370000003e-05
351 *9:5 0.00041632443704999996
352 *9:6 0.00029807241645
353 *9:7 0.00033950367225
354 *9:8 0.0003296493371999999
355 *9:9 0.00028821808139999994
356 *9:10 0.00398429292537
357 *9:11 0.00398429292537
358 *9:12 0.0
*RES
363 *9:1 SRAM_0:addr1[1] 0.11985000000000001
364 ANTENNA_SRAM_0_addr1[1]:DIODE *9:2 9.446428571428571
365 *9:3 *9:4 0.15178571428571427
366 *9:1 *9:5 1.4773666666666667
367 *9:6 *9:7 1.0449666666666666
368 *9:7 *9:8 0.10653333333333334
369 *9:8 *9:9 1.0089333333333335
370 *9:10 *9:11 91.22321428571428
371 ANTENNA_SRAM_0_addr1[1]:DIODE ANTENNA_SRAM_0_addr1[1]:DIODE 0
372 *9:2 *9:11 0
373 *9:3 *9:5 0
374 *9:12 *9:4 0
375 *9:10 *9:6 0
*END

*D_NET *10 0.01036438635001
*CONN
*P mgmt_addr_ro[2] I
*I ANTENNA_SRAM_0_addr1[2]:DIODE I
*I SRAM_0:addr1[2] I
*CAP
359 SRAM_0:addr1[2] 2.3222158424999995e-05
360 *10:1 0.00043954659547499995
361 *10:2 0.00012262468688
362 *10:3 0.00012262468688
363 *10:4 0.00032307714176
364 *10:5 0.00032307714176
365 *10:6 0.0001031338024
366 *10:7 0.0001031338024
367 *10:8 0.0011506575630100002
368 *10:9 0.0011506575630100002
369 *10:10 0.00073166315865
370 *10:11 0.0007730944144499999
371 *10:12 0.0003296493371999999
372 *10:13 0.00028821808139999994
373 ANTENNA_SRAM_0_addr1[2]:DIODE 4.466114896e-05
374 *10:14 4.466114896e-05
375 *10:15 0.00193717974067
376 *10:16 1.1906903370000003e-05
377 *10:17 0.00041632443704999996
378 *10:18 0.0019252728373
*RES
376 SRAM_0:addr1[2] *10:1 0.039950000000000006
377 *10:2 *10:3 2.464285714285714
378 *10:4 *10:5 7.285714285714286
379 *10:6 *10:7 2.0535714285714284
380 *10:8 *10:9 26.25892857142857
381 *10:10 *10:11 2.6304333333333334
382 *10:12 *10:11 0.10653333333333334
383 *10:12 *10:13 1.0089333333333335
384 ANTENNA_SRAM_0_addr1[2]:DIODE *10:14 0.8214285714285714
385 *10:15 *10:16 0.15178571428571427
386 *10:1 *10:17 1.4773666666666667
387 *10:18 *10:15 44.01785714285714
388 *10:3 *10:18 0
389 *10:2 *10:5 0
390 *10:6 *10:4 0
391 *10:7 *10:9 0
392 *10:8 *10:10 0
393 ANTENNA_SRAM_0_addr1[2]:DIODE ANTENNA_SRAM_0_addr1[2]:DIODE 0
394 *10:14 *10:15 0
395 *10:16 *10:17 0
*END

*D_NET *11 0.00897991516525
*CONN
*P mgmt_addr_ro[3] I
*I ANTENNA_SRAM_0_addr1[3]:DIODE I
*I SRAM_0:addr1[3] I
*CAP
379 *11:1 0.00124668558214
380 *11:2 0.00175647512163
381 *11:3 0.00122348464008
382 *11:4 0.0009878758699499999
383 *11:5 0.0009878758699499999
384 ANTENNA_SRAM_0_addr1[3]:DIODE 6.415203344e-05
385 *11:6 6.415203344e-05
386 *11:7 0.00173327417957
387 *11:8 0.000457969917525
388 SRAM_0:addr1[3] 2.1936810375e-05
389 *11:9 0.00043603310715000003
390 *11:10 0.0
*RES
396 *11:1 *11:2 0.4107142857142857
397 *11:3 *11:1 27.928571428571427
398 *11:4 *11:5 3.5673
399 ANTENNA_SRAM_0_addr1[3]:DIODE *11:6 1.232142857142857
400 *11:2 *11:7 39.61607142857142
401 *11:8 SRAM_0:addr1[3] 0.035250000000000004
402 *11:8 *11:9 1.5494333333333334
403 *11:3 *11:4 0
404 ANTENNA_SRAM_0_addr1[3]:DIODE ANTENNA_SRAM_0_addr1[3]:DIODE 0
405 *11:6 *11:7 0
406 *11:10 *11:9 0
*END

*D_NET *12 0.008448924441250002
*CONN
*P mgmt_addr_ro[4] I
*I ANTENNA_SRAM_0_addr1[4]:DIODE I
*I SRAM_0:addr1[4] I
*CAP
391 *12:1 0.0009484585297500001
392 *12:2 0.0009484585297500001
393 ANTENNA_SRAM_0_addr1[4]:DIODE 0.00018109734031999995
394 *12:3 0.00018109734031999995
395 *12:4 1.1906903370000003e-05
396 *12:5 1.1906903370000003e-05
397 SRAM_0:addr1[4] 0.0004901895123
398 *12:6 0.00045574177724999994
399 *12:7 6.156837525e-05
400 *12:8 6.156837525e-05
401 *12:9 0.0008881364231600001
402 *12:10 0.0008881364231600001
403 *12:11 0.00016011172575
404 *12:12 0.00016011172575
405 *12:13 0.0009321763318000001