* SPICE NETLIST
***************************************

.SUBCKT MN g s d b
.ENDS
***************************************
.SUBCKT MP g s d b
.ENDS
***************************************
.SUBCKT condiode pin0 pin1
.ENDS
***************************************
.SUBCKT condiodeHvPsub pin0 pin1
.ENDS
***************************************
.SUBCKT nvhv pin0 pin1 pin2 pin3
.ENDS
***************************************
.SUBCKT n20vhv1 pin0 pin1 pin2 pin3
.ENDS
***************************************
.SUBCKT n20nativevhv1 pin0 pin1 pin2 pin3
.ENDS
***************************************
.SUBCKT n20vhviso1 pin0 pin1 pin2 pin3 pin4
.ENDS
***************************************
.SUBCKT n20nativevhviso1 pin0 pin1 pin2 pin3 pin4
.ENDS
***************************************
.SUBCKT pvhv pin0 pin1 pin2 pin3
.ENDS
***************************************
.SUBCKT p20vhv1 pin0 pin1 pin2 pin3
.ENDS
***************************************
.SUBCKT xcnwvc pin0 pin1 pin2
.ENDS
***************************************
.SUBCKT xcnwvc2 pin0 pin1 pin2
.ENDS
***************************************
.SUBCKT xchvnwc pin0 pin1 pin2
.ENDS
***************************************
.SUBCKT Dpar d0 d1
.ENDS
***************************************
.SUBCKT xcmvpp pin0 pin1 pin2
.ENDS
***************************************
.SUBCKT xcmvpp_2 pin0 pin1 pin2
.ENDS
***************************************
.SUBCKT xcmvpp2_nhvnative10x4 pin0 pin1 pin2
.ENDS
***************************************
.SUBCKT xcmvpp2_phv5x4 pin0 pin1 pin2
.ENDS
***************************************
.SUBCKT xcmvpp_hd5_atlas_fingercap2_l5 pin0 pin1 pin2
.ENDS
***************************************
.SUBCKT xcmvpp_hd5_atlas_wafflecap2 pin0 pin1 pin2
.ENDS
***************************************
.SUBCKT xcmvpp_hd5_atlas_wafflecap1 pin0 pin1 pin2
.ENDS
***************************************
.SUBCKT xcmvpp_hd5_atlas_fingercap_l40 pin0 pin1 pin2
.ENDS
***************************************
.SUBCKT xcmvpp_hd5_atlas_fingercap_l20 pin0 pin1 pin2
.ENDS
***************************************
.SUBCKT xcmvpp_hd5_atlas_fingercap_l10 pin0 pin1 pin2
.ENDS
***************************************
.SUBCKT xcmvpp_hd5_atlas_fingercap_l5 pin0 pin1 pin2
.ENDS
***************************************
.SUBCKT xcmvpp_hd5_5x2_met5pullin pin0 pin1 pin2
.ENDS
***************************************
.SUBCKT xcmvpp_hd5_5x2 pin0 pin1 pin2
.ENDS
***************************************
.SUBCKT xcmvpp_hd5_5x1_met5pullin pin0 pin1 pin2
.ENDS
***************************************
.SUBCKT xcmvpp_hd5_5x1 pin0 pin1 pin2
.ENDS
***************************************
.SUBCKT xcmvpp_hd5_4x2 pin0 pin1 pin2
.ENDS
***************************************
.SUBCKT xcmvpp_hd5_4x1 pin0 pin1 pin2
.ENDS
***************************************
.SUBCKT xcmvpp_hd5_3x2 pin0 pin1 pin2
.ENDS
***************************************
.SUBCKT xcmvpp_hd5_3x1 pin0 pin1 pin2
.ENDS
***************************************
.SUBCKT xcmvpp_hd5_2x2 pin0 pin1 pin2
.ENDS
***************************************
.SUBCKT xcmvpp_hd5_2x1 pin0 pin1 pin2
.ENDS
***************************************
.SUBCKT xcmvpp_hd5_1x2 pin0 pin1 pin2
.ENDS
***************************************
.SUBCKT xcmvpp_hd5_1x1 pin0 pin1 pin2
.ENDS
***************************************
.SUBCKT xcmvppx4_2xnhvnative10x4 pin0 pin1 pin2 pin3
.ENDS
***************************************
.SUBCKT xcmvpp11p5x11p7_polym50p4shield pin0 pin1 pin2 pin3
.ENDS
***************************************
.SUBCKT xcmvpp4p4x4p6_m3_lim5shield pin0 pin1 pin2 pin3
.ENDS
***************************************
.SUBCKT xcmvpp11p5x11p7_m3_lim5shield pin0 pin1 pin2 pin3
.ENDS
***************************************
.SUBCKT xcmvpp8p6x7p9_m3_lim5shield pin0 pin1 pin2 pin3
.ENDS
***************************************
.SUBCKT xcmvpp11p5x11p7_lim5shield pin0 pin1 pin2 pin3
.ENDS
***************************************
.SUBCKT xcmvpp11p5x11p7_polym5shield pin0 pin1 pin2 pin3
.ENDS
***************************************
.SUBCKT xcmvpp11p5x11p7_m5shield pin0 pin1 pin2 pin3
.ENDS
***************************************
.SUBCKT xcmvpp6p8x6p1_lim4shield pin0 pin1 pin2 pin3
.ENDS
***************************************
.SUBCKT xcmvpp6p8x6p1_polym4shield pin0 pin1 pin2 pin3
.ENDS
***************************************
.SUBCKT xcmvpp11p5x11p7_polym4shield pin0 pin1 pin2 pin3
.ENDS
***************************************
.SUBCKT xcmvpp11p5x11p7_m4shield pin0 pin1 pin2 pin3
.ENDS
***************************************
.SUBCKT xcmvpp1p8x1p8 pin0 pin1 pin2
.ENDS
***************************************
.SUBCKT xcmvpp4p4x4p6_m3_lishield pin0 pin1 pin2
.ENDS
***************************************
.SUBCKT xcmvpp8p6x7p9_m3_lishield pin0 pin1 pin2
.ENDS
***************************************
.SUBCKT xcmvpp11p5x11p7_m3_lishield pin0 pin1 pin2
.ENDS
***************************************
.SUBCKT xcmvpp11p5x11p7_m3shield c0 c1 b term4
.ENDS
***************************************
.SUBCKT xcmvpp8p6x7p9_m3shield c0 c1 b term4
.ENDS
***************************************
.SUBCKT xcmvpp4p4x4p6_m3shield c0 c1 b term4
.ENDS
***************************************
.SUBCKT xcmvpp1p8x1p8_m3shield c0 c1 b term4
.ENDS
***************************************
.SUBCKT xcmvpp11p5x11p7_m1m4m5shield pin0 pin1 pin2 pin3
.ENDS
***************************************
.SUBCKT xcmvpp11p5x11p7_m1m4 pin0 pin1 pin2
.ENDS
***************************************
.SUBCKT xcmvpp11p5x11p7_m1m2 pin0 pin1 pin2
.ENDS
***************************************
.SUBCKT xcmvpp4p4x4p6_m1m2 pin0 pin1 pin2
.ENDS
***************************************
.SUBCKT xcmvpp5 pin0 pin1 pin2
.ENDS
***************************************
.SUBCKT xcmvpp4 pin0 pin1 pin2
.ENDS
***************************************
.SUBCKT xcmvpp3 pin0 pin1 pin2
.ENDS
***************************************
.SUBCKT balun pin0 pin1 pin2 pin3 pin4 pin5
.ENDS
***************************************
.SUBCKT ind4 pin0 pin1 pin2 pin3
.ENDS
***************************************
.SUBCKT xhrpoly_0p35 POS NEG SUB
.ENDS
***************************************
.SUBCKT xuhrpoly_0p35 POS NEG SUB
.ENDS
***************************************
.SUBCKT xhrpoly_0p69 POS NEG SUB
.ENDS
***************************************
.SUBCKT xuhrpoly_0p69 POS NEG SUB
.ENDS
***************************************
.SUBCKT xhrpoly_1p41 POS NEG SUB
.ENDS
***************************************
.SUBCKT xuhrpoly_1p41 POS NEG SUB
.ENDS
***************************************
.SUBCKT xhrpoly_2p85 POS NEG SUB
.ENDS
***************************************
.SUBCKT xuhrpoly_2p85 POS NEG SUB
.ENDS
***************************************
.SUBCKT xhrpoly_5p73 POS NEG SUB
.ENDS
***************************************
.SUBCKT xuhrpoly_5p73 POS NEG SUB
.ENDS
***************************************
.SUBCKT Probe probe conductor
.ENDS
***************************************
.SUBCKT sky130_fd_io__tk_em2o_cdns_55959141808653 2 3
** N=7 EP=2 IP=0 FDC=2
R0 2 6 0.01 m=1 $[short] $X=260 $Y=0 $D=283
R1 7 3 0.01 m=1 $[short] $X=1770 $Y=0 $D=283
.ENDS
***************************************
.SUBCKT sky130_fd_pr__hvdfl1sd2__example_55959141808202
** N=17 EP=0 IP=0 FDC=0
*.SEEDPROM
.ENDS
***************************************
.SUBCKT sky130_fd_pr__pfet_01v8__example_55959141808657
** N=5 EP=0 IP=0 FDC=0
*.SEEDPROM
.ENDS
***************************************
.SUBCKT sky130_fd_io__tk_em2s_cdns_55959141808652 2 3
** N=6 EP=2 IP=0 FDC=2
R0 2 6 0.01 m=1 $[short] $X=260 $Y=0 $D=283
R1 6 3 0.01 m=1 $[short] $X=1770 $Y=0 $D=283
.ENDS
***************************************
.SUBCKT ICV_1
** N=3 EP=0 IP=6 FDC=0
*.SEEDPROM
.ENDS
***************************************
.SUBCKT sky130_fd_pr__res_generic_po__example_5595914180838 2 3
** N=6 EP=2 IP=0 FDC=1
R0 2 3 L=10.2 W=0.5 m=1 mult=1 model="mrp1" $[mrp1] $X=0 $Y=0 $D=257
.ENDS
***************************************
.SUBCKT sky130_fd_pr__res_generic_po__example_5595914180864 2 3
** N=8 EP=2 IP=0 FDC=1
R0 2 3 L=1.5 W=0.8 m=1 mult=1 model="mrp1" $[mrp1] $X=0 $Y=0 $D=257
.ENDS
***************************************
.SUBCKT sky130_fd_io__tk_em1s_cdns_5595914180859 2 3
** N=6 EP=2 IP=0 FDC=2
R0 2 6 0.01 m=1 $[short] $X=260 $Y=0 $D=282
R1 6 3 0.01 m=1 $[short] $X=1770 $Y=0 $D=282
.ENDS
***************************************
.SUBCKT sky130_fd_io__res250only_small PAD ROUT
** N=32 EP=2 IP=0 FDC=7
R0 PAD 6 L=0.17 W=2 m=1 mult=1 model="mrp1" $[mrp1] $X=300 $Y=10 $D=257
R1 6 7 L=10.07 W=2 m=1 mult=1 model="mrp1" $[mrp1] $X=640 $Y=10 $D=257
R2 7 ROUT L=0.17 W=2 m=1 mult=1 model="mrp1" $[mrp1] $X=10880 $Y=10 $D=257
R3 PAD 6 0.01 m=1 $[short] $X=380 $Y=0 $D=281
R4 7 ROUT 0.01 m=1 $[short] $X=10960 $Y=0 $D=281
R5 PAD 6 0.01 m=1 $[short] $X=380 $Y=5 $D=282
R6 7 ROUT 0.01 m=1 $[short] $X=10960 $Y=5 $D=282
.ENDS
***************************************
.SUBCKT sky130_fd_pr__res_bent_po__example_5595914180862 2 3
** N=8 EP=2 IP=0 FDC=1
R0 2 3 L=6 W=0.8 m=1 mult=1 model="mrp1" $[mrp1] $X=0 $Y=0 $D=257
.ENDS
***************************************
.SUBCKT sky130_fd_pr__res_bent_po__example_5595914180863 2 3
** N=8 EP=2 IP=0 FDC=1
R0 2 3 L=12 W=0.8 m=1 mult=1 model="mrp1" $[mrp1] $X=0 $Y=0 $D=257
.ENDS
***************************************
.SUBCKT sky130_fd_pr__model__pfet_highvoltage__example_55959141808616
** N=39 EP=0 IP=0 FDC=0
*.SEEDPROM
.ENDS
***************************************
.SUBCKT sky130_fd_io__hvsbt_inv_x4
** N=74 EP=0 IP=44 FDC=0
*.SEEDPROM
*.CALIBRE ISOLATED NETS: IN OUT
.ENDS
***************************************
.SUBCKT sky130_fd_io__xres_tk_p_em1o_cdns_55959141808757 2 3
** N=7 EP=2 IP=0 FDC=2
R0 2 6 0.01 m=1 $[short] $X=130 $Y=0 $D=282
R1 7 3 0.01 m=1 $[short] $X=280 $Y=0 $D=282
.ENDS
***************************************
.SUBCKT sky130_fd_io__xres_p_em1c_cdns_55959141808753 2
** N=6 EP=1 IP=0 FDC=2
R0 2 5 0.01 m=1 $[short] $X=160 $Y=0 $D=282
R1 2 6 0.01 m=1 $[short] $X=160 $Y=250 $D=282
.ENDS
***************************************
.SUBCKT ICV_2 2 3
** N=7 EP=2 IP=9 FDC=4
X0 2 3 sky130_fd_io__xres_tk_p_em1o_cdns_55959141808757 $T=0 0 0 0 $X=0 $Y=0
X1 2 sky130_fd_io__xres_p_em1c_cdns_55959141808753 $T=-10 -770 0 0 $X=-10 $Y=-770
.ENDS
***************************************
.SUBCKT sky130_fd_pr__res_generic_nd__example_55959141808754 2 3
** N=5 EP=2 IP=0 FDC=1
*.SEEDPROM
R0 2 3 L=14 W=0.5 m=1 $[mrdn] $X=0 $Y=0 $D=253
.ENDS
***************************************
.SUBCKT ICV_3 2 3 4 5
** N=9 EP=4 IP=10 FDC=2
*.SEEDPROM
X0 2 3 sky130_fd_pr__res_generic_nd__example_55959141808754 $T=14000 -770 1 180 $X=-340 $Y=-900
X1 4 5 sky130_fd_pr__res_generic_nd__example_55959141808754 $T=0 0 0 0 $X=-340 $Y=-130
.ENDS
***************************************
.SUBCKT ICV_4 2 3 4 5 6 7 8 9
** N=17 EP=8 IP=18 FDC=4
*.SEEDPROM
X0 4 2 3 5 ICV_3 $T=0 -1540 0 0 $X=-340 $Y=-2440
X1 8 6 7 9 ICV_3 $T=0 0 0 0 $X=-340 $Y=-900
.ENDS
***************************************
.SUBCKT sky130_fd_io__xres_tk_p_em1o_cdns_55959141808758 2 3
** N=7 EP=2 IP=0 FDC=2
R0 2 6 0.01 m=1 $[short] $X=130 $Y=0 $D=282
R1 7 3 0.01 m=1 $[short] $X=280 $Y=0 $D=282
.ENDS
***************************************
.SUBCKT sky130_fd_io__xres_tk_p_em1c_cdns_55959141808760 2
** N=6 EP=1 IP=0 FDC=2
R0 2 5 0.01 m=1 $[short] $X=160 $Y=0 $D=282
R1 2 6 0.01 m=1 $[short] $X=160 $Y=640 $D=282
.ENDS
***************************************
.SUBCKT sky130_fd_io__xres_tk_p_em1c_cdns_55959141808761 2
** N=6 EP=1 IP=0 FDC=2
R0 2 5 0.01 m=1 $[short] $X=160 $Y=0 $D=282
R1 2 6 0.01 m=1 $[short] $X=160 $Y=250 $D=282
.ENDS
***************************************
.SUBCKT sky130_fd_pr__hvdfl1sd__example_55959141808700
** N=21 EP=0 IP=0 FDC=0
.ENDS
***************************************
.SUBCKT sky130_fd_pr__hvdfl1sd__example_55959141808338
** N=22 EP=0 IP=0 FDC=0
*.SEEDPROM
.ENDS
***************************************
.SUBCKT sky130_fd_pr__hvdfl1sd2__example_55959141808559
** N=21 EP=0 IP=0 FDC=0
.ENDS
***************************************
.SUBCKT sky130_fd_pr__dfl1sd2__example_55959141808666
** N=22 EP=0 IP=0 FDC=0
*.SEEDPROM
.ENDS
***************************************
.SUBCKT sky130_fd_pr__hvdfl1sd2__example_55959141808337
** N=22 EP=0 IP=0 FDC=0
*.SEEDPROM
.ENDS
***************************************
.SUBCKT sky130_fd_pr__via_pol1__example_55959141808273
** N=13 EP=0 IP=0 FDC=0
.ENDS
***************************************
.SUBCKT ICV_5
** N=3 EP=0 IP=4 FDC=0
.ENDS
***************************************
.SUBCKT ICV_6
** N=5 EP=0 IP=6 FDC=0
.ENDS
***************************************
.SUBCKT sky130_fd_io__xres_tk_p_em1c_cdns_55959141808759 1
** N=5 EP=1 IP=0 FDC=2
R0 1 4 0.01 m=1 $[short] $X=160 $Y=0 $D=282
R1 1 5 0.01 m=1 $[short] $X=160 $Y=280 $D=282
.ENDS
***************************************
.SUBCKT ICV_7 2 3 4
** N=8 EP=3 IP=9 FDC=4
X0 2 3 sky130_fd_io__xres_tk_p_em1o_cdns_55959141808757 $T=0 0 0 0 $X=0 $Y=0
X1 4 sky130_fd_io__xres_p_em1c_cdns_55959141808753 $T=-10 770 0 0 $X=-10 $Y=770
.ENDS
***************************************
.SUBCKT sky130_fd_io__xres_tk_p_em1o_cdns_55959141808756 1 2
** N=6 EP=2 IP=0 FDC=2
R0 2 5 0.01 m=1 $[short] $X=130 $Y=0 $D=282
R1 6 1 0.01 m=1 $[short] $X=280 $Y=0 $D=282
.ENDS
***************************************
.SUBCKT sky130_fd_pr__res_generic_nd__example_55959141808755 2 3
** N=5 EP=2 IP=0 FDC=1
*.SEEDPROM
R0 2 3 L=47 W=0.5 m=1 $[mrdn] $X=0 $Y=0 $D=253
.ENDS
***************************************
.SUBCKT ICV_8 2 3 4
** N=8 EP=3 IP=10 FDC=2
*.SEEDPROM
X0 2 3 sky130_fd_pr__res_generic_nd__example_55959141808754 $T=0 0 0 0 $X=-340 $Y=-130
X1 4 2 sky130_fd_pr__res_generic_nd__example_55959141808755 $T=-47510 0 0 0 $X=-47850 $Y=-130
.ENDS
***************************************
.SUBCKT ICV_9 2 3
** N=7 EP=2 IP=10 FDC=2
*.SEEDPROM
X0 2 2 sky130_fd_pr__res_generic_nd__example_55959141808754 $T=0 0 0 0 $X=-340 $Y=-130
X1 2 3 sky130_fd_pr__res_generic_nd__example_55959141808755 $T=14510 0 0 0 $X=14170 $Y=-130
.ENDS
***************************************
.SUBCKT ICV_10 2 3 4 5 6
** N=14 EP=5 IP=15 FDC=4
*.SEEDPROM
X0 3 4 2 ICV_8 $T=0 0 0 0 $X=-47850 $Y=-130
X1 5 6 ICV_9 $T=14000 770 1 180 $X=-47850 $Y=640
.ENDS
***************************************
.SUBCKT ICV_11 2 3 4 5 6 7 8 9 10 11
** N=27 EP=10 IP=28 FDC=8
*.SEEDPROM
X0 2 4 6 5 3 ICV_10 $T=0 0 0 0 $X=-47850 $Y=-130
X1 7 9 11 10 8 ICV_10 $T=0 1540 0 0 $X=-47850 $Y=1410
.ENDS
***************************************
.SUBCKT sky130_fd_io__xres2v2_rcfilter_lpfv2 1 VCC_IO 3 4 5 6 7 8 9 10 11 12 13 IN
** N=5540 EP=14 IP=608 FDC=361
M0 1 3 1 1 nhv L=4 W=7 AD=0.98 AS=1.855 PD=7.28 PS=14.53 NRD=0 NRS=0 m=1 r=1.75 sa=2e+06 sb=2.00002e+06 a=28 p=22 mult=1 $X=2725 $Y=11605 $D=49
M1 1 4 1 1 nhv L=4 W=7 AD=0.98 AS=0.98 PD=7.28 PS=7.28 NRD=0 NRS=0 m=1 r=1.75 sa=2e+06 sb=2.00002e+06 a=28 p=22 mult=1 $X=7005 $Y=11605 $D=49
M2 1 5 1 1 nhv L=4 W=7 AD=0.98 AS=0.98 PD=7.28 PS=7.28 NRD=0 NRS=0 m=1 r=1.75 sa=2.00001e+06 sb=2.00002e+06 a=28 p=22 mult=1 $X=11285 $Y=11605 $D=49
M3 1 6 1 1 nhv L=4 W=7 AD=0.98 AS=0.98 PD=7.28 PS=7.28 NRD=0 NRS=0 m=1 r=1.75 sa=2.00001e+06 sb=2.00002e+06 a=28 p=22 mult=1 $X=15565 $Y=11605 $D=49
M4 1 7 1 1 nhv L=4 W=7 AD=0.98 AS=0.98 PD=7.28 PS=7.28 NRD=0 NRS=0 m=1 r=1.75 sa=2.00002e+06 sb=2.00002e+06 a=28 p=22 mult=1 $X=19845 $Y=11605 $D=49
M5 1 8 1 1 nhv L=4 W=7 AD=0.98 AS=0.98 PD=7.28 PS=7.28 NRD=0 NRS=0 m=1 r=1.75 sa=2.00002e+06 sb=2.00002e+06 a=28 p=22 mult=1 $X=24125 $Y=11605 $D=49
M6 1 9 1 1 nhv L=4 W=7 AD=0.98 AS=0.98 PD=7.28 PS=7.28 NRD=0 NRS=0 m=1 r=1.75 sa=2.00002e+06 sb=2.00002e+06 a=28 p=22 mult=1 $X=28405 $Y=11605 $D=49
M7 1 10 1 1 nhv L=4 W=7 AD=0.98 AS=0.98 PD=7.28 PS=7.28 NRD=0 NRS=0 m=1 r=1.75 sa=2.00002e+06 sb=2.00002e+06 a=28 p=22 mult=1 $X=32685 $Y=11605 $D=49
M8 1 11 1 1 nhv L=4 W=7 AD=0.98 AS=0.98 PD=7.28 PS=7.28 NRD=0 NRS=0 m=1 r=1.75 sa=2.00002e+06 sb=2.00001e+06 a=28 p=22 mult=1 $X=36965 $Y=11605 $D=49
M9 1 11 1 1 nhv L=4 W=7 AD=0.98 AS=0.98 PD=7.28 PS=7.28 NRD=0 NRS=0 m=1 r=1.75 sa=2.00002e+06 sb=2.00001e+06 a=28 p=22 mult=1 $X=41245 $Y=11605 $D=49
M10 1 12 1 1 nhv L=4 W=7 AD=0.98 AS=0.98 PD=7.28 PS=7.28 NRD=0 NRS=0 m=1 r=1.75 sa=2.00002e+06 sb=2e+06 a=28 p=22 mult=1 $X=45525 $Y=11605 $D=49
M11 1 13 1 1 nhv L=4 W=7 AD=1.855 AS=0.98 PD=14.53 PS=7.28 NRD=0 NRS=0 m=1 r=1.75 sa=2.00002e+06 sb=2e+06 a=28 p=22 mult=1 $X=49805 $Y=11605 $D=49
M12 VCC_IO 3 VCC_IO VCC_IO phv L=4 W=7 AD=0.98 AS=1.855 PD=7.28 PS=14.53 NRD=0 NRS=0 m=1 r=1.75 sa=2e+06 sb=2.00002e+06 a=28 p=22 mult=1 $X=2625 $Y=21435 $D=109
M13 VCC_IO 4 VCC_IO VCC_IO phv L=4 W=7 AD=0.98 AS=0.98 PD=7.28 PS=7.28 NRD=0 NRS=0 m=1 r=1.75 sa=2e+06 sb=2.00002e+06 a=28 p=22 mult=1 $X=6905 $Y=21435 $D=109
M14 VCC_IO 5 VCC_IO VCC_IO phv L=4 W=7 AD=0.98 AS=0.98 PD=7.28 PS=7.28 NRD=0 NRS=0 m=1 r=1.75 sa=2.00001e+06 sb=2.00002e+06 a=28 p=22 mult=1 $X=11185 $Y=21435 $D=109
M15 VCC_IO 6 VCC_IO VCC_IO phv L=4 W=7 AD=0.98 AS=0.98 PD=7.28 PS=7.28 NRD=0 NRS=0 m=1 r=1.75 sa=2.00001e+06 sb=2.00002e+06 a=28 p=22 mult=1 $X=15465 $Y=21435 $D=109
M16 VCC_IO 7 VCC_IO VCC_IO phv L=4 W=7 AD=0.98 AS=0.98 PD=7.28 PS=7.28 NRD=0 NRS=0 m=1 r=1.75 sa=2.00002e+06 sb=2.00002e+06 a=28 p=22 mult=1 $X=19745 $Y=21435 $D=109
M17 VCC_IO 8 VCC_IO VCC_IO phv L=4 W=7 AD=0.98 AS=0.98 PD=7.28 PS=7.28 NRD=0 NRS=0 m=1 r=1.75 sa=2.00002e+06 sb=2.00002e+06 a=28 p=22 mult=1 $X=24025 $Y=21435 $D=109
M18 VCC_IO 9 VCC_IO VCC_IO phv L=4 W=7 AD=0.98 AS=0.98 PD=7.28 PS=7.28 NRD=0 NRS=0 m=1 r=1.75 sa=2.00002e+06 sb=2.00002e+06 a=28 p=22 mult=1 $X=28305 $Y=21435 $D=109
M19 VCC_IO 10 VCC_IO VCC_IO phv L=4 W=7 AD=0.98 AS=0.98 PD=7.28 PS=7.28 NRD=0 NRS=0 m=1 r=1.75 sa=2.00002e+06 sb=2.00002e+06 a=28 p=22 mult=1 $X=32585 $Y=21435 $D=109
M20 VCC_IO 11 VCC_IO VCC_IO phv L=4 W=7 AD=0.98 AS=0.98 PD=7.28 PS=7.28 NRD=0 NRS=0 m=1 r=1.75 sa=2.00002e+06 sb=2.00001e+06 a=28 p=22 mult=1 $X=36865 $Y=21435 $D=109
M21 VCC_IO 11 VCC_IO VCC_IO phv L=4 W=7 AD=0.98 AS=0.98 PD=7.28 PS=7.28 NRD=0 NRS=0 m=1 r=1.75 sa=2.00002e+06 sb=2.00001e+06 a=28 p=22 mult=1 $X=41145 $Y=21435 $D=109
M22 VCC_IO 12 VCC_IO VCC_IO phv L=4 W=7 AD=0.98 AS=0.98 PD=7.28 PS=7.28 NRD=0 NRS=0 m=1 r=1.75 sa=2.00002e+06 sb=2e+06 a=28 p=22 mult=1 $X=45425 $Y=21435 $D=109
M23 VCC_IO 13 VCC_IO VCC_IO phv L=4 W=7 AD=1.855 AS=0.98 PD=14.53 PS=7.28 NRD=0 NRS=0 m=1 r=1.75 sa=2.00002e+06 sb=2e+06 a=28 p=22 mult=1 $X=49705 $Y=21435 $D=109
X24 1 8 Dpar a=3.7735 p=15.594 m=1 $[ndiode] $X=2360 $Y=815 $D=181
X25 1 7 Dpar a=3.7735 p=15.594 m=1 $[ndiode] $X=2360 $Y=2355 $D=181
X26 1 6 Dpar a=3.7735 p=15.594 m=1 $[ndiode] $X=2360 $Y=3895 $D=181
X27 1 5 Dpar a=3.7735 p=15.594 m=1 $[ndiode] $X=2360 $Y=5435 $D=181
X28 1 4 Dpar a=3.7735 p=15.594 m=1 $[ndiode] $X=2360 $Y=6975 $D=181
X29 1 3 Dpar a=3.7735 p=15.594 m=1 $[ndiode] $X=2360 $Y=8515 $D=181
X30 1 15 Dpar a=3.7735 p=15.594 m=1 $[ndiode] $X=2360 $Y=31330 $D=181
X31 1 16 Dpar a=3.7735 p=15.594 m=1 $[ndiode] $X=2360 $Y=32870 $D=181
X32 1 17 Dpar a=3.7735 p=15.594 m=1 $[ndiode] $X=2360 $Y=34410 $D=181
X33 1 18 Dpar a=3.7735 p=15.594 m=1 $[ndiode] $X=2360 $Y=35950 $D=181
X34 1 19 Dpar a=3.7735 p=15.594 m=1 $[ndiode] $X=2360 $Y=37490 $D=181
X35 1 20 Dpar a=3.7735 p=15.594 m=1 $[ndiode] $X=2360 $Y=39030 $D=181
X36 1 1 Dpar a=3.774 p=15.596 m=1 $[ndiode] $X=2360 $Y=1585 $D=181
X37 1 1 Dpar a=3.774 p=15.596 m=1 $[ndiode] $X=2360 $Y=3125 $D=181
X38 1 1 Dpar a=3.774 p=15.596 m=1 $[ndiode] $X=2360 $Y=4665 $D=181
X39 1 1 Dpar a=3.774 p=15.596 m=1 $[ndiode] $X=2360 $Y=6205 $D=181
X40 1 3 Dpar a=3.774 p=15.596 m=1 $[ndiode] $X=2360 $Y=7745 $D=181
X41 1 9 Dpar a=3.774 p=15.596 m=1 $[ndiode] $X=2360 $Y=9285 $D=181
X42 1 15 Dpar a=3.774 p=15.596 m=1 $[ndiode] $X=2360 $Y=30560 $D=181
X43 1 16 Dpar a=3.774 p=15.596 m=1 $[ndiode] $X=2360 $Y=32100 $D=181
X44 1 17 Dpar a=3.774 p=15.596 m=1 $[ndiode] $X=2360 $Y=33640 $D=181
X45 1 18 Dpar a=3.774 p=15.596 m=1 $[ndiode] $X=2360 $Y=35180 $D=181
X46 1 19 Dpar a=3.774 p=15.596 m=1 $[ndiode] $X=2360 $Y=36720 $D=181
X47 1 20 Dpar a=3.774 p=15.596 m=1 $[ndiode] $X=2360 $Y=38260 $D=181
X48 1 21 Dpar a=15.5025 p=62.01 m=1 $[ndiode] $X=9912 $Y=815 $D=181
X49 1 22 Dpar a=15.5025 p=62.01 m=1 $[ndiode] $X=9912 $Y=2355 $D=181
X50 1 23 Dpar a=15.5025 p=62.01 m=1 $[ndiode] $X=9912 $Y=3895 $D=181
X51 1 24 Dpar a=15.5025 p=62.01 m=1 $[ndiode] $X=9912 $Y=5435 $D=181
X52 1 25 Dpar a=15.5025 p=62.01 m=1 $[ndiode] $X=9912 $Y=6975 $D=181
X53 1 26 Dpar a=15.5025 p=62.01 m=1 $[ndiode] $X=9912 $Y=8515 $D=181
X54 1 27 Dpar a=15.5025 p=62.01 m=1 $[ndiode] $X=9912 $Y=31330 $D=181
X55 1 28 Dpar a=15.5025 p=62.01 m=1 $[ndiode] $X=9912 $Y=32870 $D=181
X56 1 29 Dpar a=15.5025 p=62.01 m=1 $[ndiode] $X=9912 $Y=34410 $D=181
X57 1 30 Dpar a=15.5025 p=62.01 m=1 $[ndiode] $X=9912 $Y=35950 $D=181
X58 1 31 Dpar a=15.5025 p=62.01 m=1 $[ndiode] $X=9912 $Y=37490 $D=181
X59 1 32 Dpar a=15.5025 p=62.01 m=1 $[ndiode] $X=9912 $Y=39030 $D=181
X60 1 1 Dpar a=15.5025 p=62.01 m=1 $[ndiode] $X=9913 $Y=1585 $D=181
X61 1 1 Dpar a=15.5025 p=62.01 m=1 $[ndiode] $X=9913 $Y=3125 $D=181
X62 1 1 Dpar a=15.5025 p=62.01 m=1 $[ndiode] $X=9913 $Y=4665 $D=181
X63 1 1 Dpar a=15.5025 p=62.01 m=1 $[ndiode] $X=9913 $Y=6205 $D=181
X64 1 3 Dpar a=15.5025 p=62.01 m=1 $[ndiode] $X=9913 $Y=7745 $D=181
X65 1 9 Dpar a=15.5025 p=62.01 m=1 $[ndiode] $X=9913 $Y=9285 $D=181
X66 1 15 Dpar a=15.5025 p=62.01 m=1 $[ndiode] $X=9913 $Y=30560 $D=181
X67 1 16 Dpar a=15.5025 p=62.01 m=1 $[ndiode] $X=9913 $Y=32100 $D=181
X68 1 17 Dpar a=15.5025 p=62.01 m=1 $[ndiode] $X=9913 $Y=33640 $D=181
X69 1 18 Dpar a=15.5025 p=62.01 m=1 $[ndiode] $X=9913 $Y=35180 $D=181
X70 1 19 Dpar a=15.5025 p=62.01 m=1 $[ndiode] $X=9913 $Y=36720 $D=181
X71 1 20 Dpar a=15.5025 p=62.01 m=1 $[ndiode] $X=9913 $Y=38260 $D=181
X72 1 38 Dpar a=12.024 p=48.596 m=1 $[ndiode] $X=40922 $Y=815 $D=181
X73 1 39 Dpar a=12.0235 p=48.594 m=1 $[ndiode] $X=40923 $Y=1585 $D=181
X74 1 37 Dpar a=12.024 p=48.596 m=1 $[ndiode] $X=40922 $Y=2355 $D=181
X75 1 40 Dpar a=12.0235 p=48.594 m=1 $[ndiode] $X=40923 $Y=3125 $D=181
X76 1 36 Dpar a=12.024 p=48.596 m=1 $[ndiode] $X=40922 $Y=3895 $D=181
X77 1 41 Dpar a=12.0235 p=48.594 m=1 $[ndiode] $X=40923 $Y=4665 $D=181
X78 1 35 Dpar a=12.024 p=48.596 m=1 $[ndiode] $X=40922 $Y=5435 $D=181
X79 1 42 Dpar a=12.0235 p=48.594 m=1 $[ndiode] $X=40923 $Y=6205 $D=181
X80 1 34 Dpar a=12.024 p=48.596 m=1 $[ndiode] $X=40922 $Y=6975 $D=181
X81 1 43 Dpar a=12.0235 p=48.594 m=1 $[ndiode] $X=40923 $Y=7745 $D=181
X82 1 33 Dpar a=12.024 p=48.596 m=1 $[ndiode] $X=40922 $Y=8515 $D=181
X83 1 44 Dpar a=12.0235 p=48.594 m=1 $[ndiode] $X=40923 $Y=9285 $D=181
X84 1 45 Dpar a=12.0235 p=48.594 m=1 $[ndiode] $X=40923 $Y=30560 $D=181
X85 1 10 Dpar a=12.024 p=48.596 m=1 $[ndiode] $X=40922 $Y=31330 $D=181
X86 1 46 Dpar a=12.0235 p=48.594 m=1 $[ndiode] $X=40923 $Y=32100 $D=181
X87 1 11 Dpar a=12.024 p=48.596 m=1 $[ndiode] $X=40922 $Y=32870 $D=181
X88 1 47 Dpar a=12.0235 p=48.594 m=1 $[ndiode] $X=40923 $Y=33640 $D=181
X89 1 11 Dpar a=12.024 p=48.596 m=1 $[ndiode] $X=40922 $Y=34410 $D=181
X90 1 48 Dpar a=12.0235 p=48.594 m=1 $[ndiode] $X=40923 $Y=35180 $D=181
X91 1 12 Dpar a=12.024 p=48.596 m=1 $[ndiode] $X=40922 $Y=35950 $D=181
X92 1 49 Dpar a=12.0235 p=48.594 m=1 $[ndiode] $X=40923 $Y=36720 $D=181
X93 1 13 Dpar a=12.024 p=48.596 m=1 $[ndiode] $X=40922 $Y=37490 $D=181
X94 1 50 Dpar a=12.0235 p=48.594 m=1 $[ndiode] $X=40923 $Y=38260 $D=181
X95 1 IN Dpar a=12.024 p=48.596 m=1 $[ndiode] $X=40922 $Y=39030 $D=181
X96 1 33 Dpar a=3.7735 p=15.594 m=1 $[ndiode] $X=58090 $Y=10735 $D=181
X97 1 34 Dpar a=3.7735 p=15.594 m=1 $[ndiode] $X=58090 $Y=12275 $D=181
X98 1 35 Dpar a=3.7735 p=15.594 m=1 $[ndiode] $X=58090 $Y=13815 $D=181
X99 1 36 Dpar a=3.7735 p=15.594 m=1 $[ndiode] $X=58090 $Y=15355 $D=181
X100 1 37 Dpar a=3.7735 p=15.594 m=1 $[ndiode] $X=58090 $Y=16895 $D=181
X101 1 38 Dpar a=3.7735 p=15.594 m=1 $[ndiode] $X=58090 $Y=18435 $D=181
X102 1 13 Dpar a=3.7735 p=15.594 m=1 $[ndiode] $X=58090 $Y=21405 $D=181
X103 1 12 Dpar a=3.7735 p=15.594 m=1 $[ndiode] $X=58090 $Y=22945 $D=181
X104 1 11 Dpar a=3.7735 p=15.594 m=1 $[ndiode] $X=58090 $Y=24485 $D=181
X105 1 11 Dpar a=3.7735 p=15.594 m=1 $[ndiode] $X=58090 $Y=26025 $D=181
X106 1 10 Dpar a=3.7735 p=15.594 m=1 $[ndiode] $X=58090 $Y=27565 $D=181
X107 1 9 Dpar a=3.7735 p=15.594 m=1 $[ndiode] $X=58090 $Y=29105 $D=181
X108 1 33 Dpar a=3.774 p=15.596 m=1 $[ndiode] $X=58090 $Y=11505 $D=181
X109 1 34 Dpar a=3.774 p=15.596 m=1 $[ndiode] $X=58090 $Y=13045 $D=181
X110 1 35 Dpar a=3.774 p=15.596 m=1 $[ndiode] $X=58090 $Y=14585 $D=181
X111 1 36 Dpar a=3.774 p=15.596 m=1 $[ndiode] $X=58090 $Y=16125 $D=181
X112 1 37 Dpar a=3.774 p=15.596 m=1 $[ndiode] $X=58090 $Y=17665 $D=181
X113 1 38 Dpar a=3.774 p=15.596 m=1 $[ndiode] $X=58090 $Y=19205 $D=181
X114 1 IN Dpar a=3.774 p=15.596 m=1 $[ndiode] $X=58090 $Y=20635 $D=181
X115 1 13 Dpar a=3.774 p=15.596 m=1 $[ndiode] $X=58090 $Y=22175 $D=181
X116 1 12 Dpar a=3.774 p=15.596 m=1 $[ndiode] $X=58090 $Y=23715 $D=181
X117 1 11 Dpar a=3.774 p=15.596 m=1 $[ndiode] $X=58090 $Y=25255 $D=181
X118 1 11 Dpar a=3.774 p=15.596 m=1 $[ndiode] $X=58090 $Y=26795 $D=181
X119 1 10 Dpar a=3.774 p=15.596 m=1 $[ndiode] $X=58090 $Y=28335 $D=181
X120 1 44 Dpar a=3.774 p=15.596 m=1 $[ndiode] $X=65642 $Y=10735 $D=181
X121 1 33 Dpar a=3.7735 p=15.594 m=1 $[ndiode] $X=65643 $Y=11505 $D=181
X122 1 43 Dpar a=3.774 p=15.596 m=1 $[ndiode] $X=65642 $Y=12275 $D=181
X123 1 34 Dpar a=3.7735 p=15.594 m=1 $[ndiode] $X=65643 $Y=13045 $D=181
X124 1 42 Dpar a=3.774 p=15.596 m=1 $[ndiode] $X=65642 $Y=13815 $D=181
X125 1 35 Dpar a=3.7735 p=15.594 m=1 $[ndiode] $X=65643 $Y=14585 $D=181
X126 1 41 Dpar a=3.774 p=15.596 m=1 $[ndiode] $X=65642 $Y=15355 $D=181
X127 1 36 Dpar a=3.7735 p=15.594 m=1 $[ndiode] $X=65643 $Y=16125 $D=181
X128 1 40 Dpar a=3.774 p=15.596 m=1 $[ndiode] $X=65642 $Y=16895 $D=181
X129 1 37 Dpar a=3.7735 p=15.594 m=1 $[ndiode] $X=65643 $Y=17665 $D=181
X130 1 39 Dpar a=3.774 p=15.596 m=1 $[ndiode] $X=65642 $Y=18435 $D=181
X131 1 38 Dpar a=3.7735 p=15.594 m=1 $[ndiode] $X=65643 $Y=19205 $D=181
X132 1 IN Dpar a=3.7735 p=15.594 m=1 $[ndiode] $X=65643 $Y=20635 $D=181
X133 1 50 Dpar a=3.774 p=15.596 m=1 $[ndiode] $X=65642 $Y=21405 $D=181
X134 1 13 Dpar a=3.7735 p=15.594 m=1 $[ndiode] $X=65643 $Y=22175 $D=181
X135 1 49 Dpar a=3.774 p=15.596 m=1 $[ndiode] $X=65642 $Y=22945 $D=181
X136 1 12 Dpar a=3.7735 p=15.594 m=1 $[ndiode] $X=65643 $Y=23715 $D=181
X137 1 48 Dpar a=3.774 p=15.596 m=1 $[ndiode] $X=65642 $Y=24485 $D=181
X138 1 11 Dpar a=3.7735 p=15.594 m=1 $[ndiode] $X=65643 $Y=25255 $D=181
X139 1 47 Dpar a=3.774 p=15.596 m=1 $[ndiode] $X=65642 $Y=26025 $D=181
X140 1 11 Dpar a=3.7735 p=15.594 m=1 $[ndiode] $X=65643 $Y=26795 $D=181
X141 1 46 Dpar a=3.774 p=15.596 m=1 $[ndiode] $X=65642 $Y=27565 $D=181
X142 1 10 Dpar a=3.7735 p=15.594 m=1 $[ndiode] $X=65643 $Y=28335 $D=181
X143 1 45 Dpar a=3.774 p=15.596 m=1 $[ndiode] $X=65642 $Y=29105 $D=181
X144 1 VCC_IO Dpar a=501.44 p=125.96 m=1 $[nwdiode] $X=1350 $Y=20095 $D=191
X145 20 32 sky130_fd_io__xres_tk_p_em1o_cdns_55959141808757 $T=16535 39150 0 0 $X=16535 $Y=39150
X146 8 4 sky130_fd_io__xres_tk_p_em1o_cdns_55959141808757 $T=54510 935 0 0 $X=54510 $Y=935
X147 7 4 sky130_fd_io__xres_tk_p_em1o_cdns_55959141808757 $T=54510 2475 0 0 $X=54510 $Y=2475
X148 6 4 sky130_fd_io__xres_tk_p_em1o_cdns_55959141808757 $T=54510 4015 0 0 $X=54510 $Y=4015
X149 5 4 sky130_fd_io__xres_tk_p_em1o_cdns_55959141808757 $T=54510 5555 0 0 $X=54510 $Y=5555
X150 3 4 sky130_fd_io__xres_tk_p_em1o_cdns_55959141808757 $T=54510 8635 0 0 $X=54510 $Y=8635
X151 9 4 sky130_fd_io__xres_tk_p_em1o_cdns_55959141808757 $T=71780 29485 0 180 $X=71360 $Y=29225
X152 12 49 sky130_fd_io__xres_tk_p_em1o_cdns_55959141808757 $T=72265 23325 1 0 $X=72265 $Y=23065
X153 11 47 sky130_fd_io__xres_tk_p_em1o_cdns_55959141808757 $T=72265 26405 1 0 $X=72265 $Y=26145
X154 9 45 sky130_fd_io__xres_tk_p_em1o_cdns_55959141808757 $T=72265 29485 1 0 $X=72265 $Y=29225
X155 15 sky130_fd_io__xres_p_em1c_cdns_55959141808753 $T=16525 30680 0 0 $X=16525 $Y=30680
X156 IN sky130_fd_io__xres_p_em1c_cdns_55959141808753 $T=72255 21015 1 0 $X=72255 $Y=20755
X157 12 sky130_fd_io__xres_p_em1c_cdns_55959141808753 $T=72255 24095 1 0 $X=72255 $Y=23835
X158 11 sky130_fd_io__xres_p_em1c_cdns_55959141808753 $T=72255 27175 1 0 $X=72255 $Y=26915
X159 33 44 ICV_2 $T=72265 11115 1 0 $X=72255 $Y=10855
X160 34 43 ICV_2 $T=72265 12655 1 0 $X=72255 $Y=12395
X161 35 42 ICV_2 $T=72265 14195 1 0 $X=72255 $Y=13935
X162 36 41 ICV_2 $T=72265 15735 1 0 $X=72255 $Y=15475
X163 37 40 ICV_2 $T=72265 17275 1 0 $X=72255 $Y=17015
X164 38 39 ICV_2 $T=72265 18815 1 0 $X=72255 $Y=18555
X165 13 50 ICV_2 $T=72265 21785 1 0 $X=72255 $Y=21525
X166 11 48 ICV_2 $T=72265 24865 1 0 $X=72255 $Y=24605
X167 10 46 ICV_2 $T=72265 27945 1 0 $X=72255 $Y=27685
X168 34 43 34 34 33 44 33 33 ICV_4 $T=72640 11235 0 180 $X=58300 $Y=10605
X169 36 41 36 36 35 42 35 35 ICV_4 $T=72640 14315 0 180 $X=58300 $Y=13685
X170 38 39 38 38 37 40 37 37 ICV_4 $T=72640 17395 0 180 $X=58300 $Y=16765
X171 12 13 49 13 13 IN 50 IN ICV_4 $T=58640 21135 1 0 $X=58300 $Y=20505
X172 11 11 47 11 11 12 48 12 ICV_4 $T=58640 24215 1 0 $X=58300 $Y=23585
X173 9 10 45 10 10 11 46 11 ICV_4 $T=58640 27295 1 0 $X=58300 $Y=26665
X174 1 7 sky130_fd_io__xres_tk_p_em1o_cdns_55959141808758 $T=2980 2025 0 90 $X=2330 $Y=2025
X175 1 6 sky130_fd_io__xres_tk_p_em1o_cdns_55959141808758 $T=2980 3565 0 90 $X=2330 $Y=3565
X176 1 5 sky130_fd_io__xres_tk_p_em1o_cdns_55959141808758 $T=2980 5100 0 90 $X=2330 $Y=5100
X177 1 4 sky130_fd_io__xres_tk_p_em1o_cdns_55959141808758 $T=2980 6640 0 90 $X=2330 $Y=6640
X178 13 12 sky130_fd_io__xres_tk_p_em1o_cdns_55959141808758 $T=58060 22600 1 90 $X=58060 $Y=22600
X179 12 11 sky130_fd_io__xres_tk_p_em1o_cdns_55959141808758 $T=58060 24140 1 90 $X=58060 $Y=24140
X180 11 10 sky130_fd_io__xres_tk_p_em1o_cdns_55959141808758 $T=58060 27220 1 90 $X=58060 $Y=27220
X181 10 9 sky130_fd_io__xres_tk_p_em1o_cdns_55959141808758 $T=58060 28760 1 90 $X=58060 $Y=28760
X182 3 sky130_fd_io__xres_tk_p_em1c_cdns_55959141808760 $T=2980 8155 0 90 $X=2330 $Y=8155
X183 11 sky130_fd_io__xres_tk_p_em1c_cdns_55959141808760 $T=58060 25680 1 90 $X=58060 $Y=25680
X184 9 sky130_fd_io__xres_tk_p_em1c_cdns_55959141808761 $T=29530 9405 0 0 $X=29530 $Y=9405