* SPICE NETLIST
***************************************


***************************************
.SUBCKT sky130_fd_pr__res_bent_po__example_55959141808669 2 3
**
R0 2 3 sky130_fd_pr__res_generic_po L=470 W=0.33 m=1
.ENDS
***************************************
.SUBCKT sky130_fd_pr__dfl1__example_55959141808662
**
.ENDS
***************************************
.SUBCKT sky130_fd_pr__dfl1__example_55959141808663
**
.ENDS
***************************************
.SUBCKT sky130_fd_pr__hvdfl1sd__example_5595914180851
**
.ENDS
***************************************
.SUBCKT sky130_fd_pr__model__nfet_highvoltage__example_55959141808664 1 2
**
XM0 1 2 1 1 sky130_fd_pr__nfet_g5v0d10v5 L=4 W=5 AD=1.325 AS=1.325 PD=10.53 PS=10.53 NRD=0 NRS=0 m=1 sa=2e+06 sb=2e+06 a=20 p=18
.ENDS
***************************************
.SUBCKT sky130_fd_io__sio_clamp_pcap_4x5 1 2
**
X0 1 2 sky130_fd_pr__model__nfet_highvoltage__example_55959141808664
.ENDS
***************************************
.SUBCKT sky130_fd_io__esd_rcclamp_nfetcap 1 2
**
XM0 1 2 1 1 sky130_fd_pr__nfet_g5v0d10v5 L=8 W=5 AD=1.325 AS=1.325 PD=10.53 PS=10.53 NRD=0 NRS=0 m=1 sa=4e+06 sb=4e+06 a=40 p=26
.ENDS
***************************************
.SUBCKT sky130_fd_pr__dfl1sd__example_55959141808678
**
.ENDS
***************************************
.SUBCKT sky130_fd_pr__dfl1sd2__example_55959141808679
**
.ENDS
***************************************
.SUBCKT ICV_1
**
.ENDS
***************************************
.SUBCKT ICV_2
**
.ENDS
***************************************
.SUBCKT sky130_fd_pr__nfet_01v8__example_55959141808677 1 2 3
**
XM0 3 2 1 1 sky130_fd_pr__nfet_g5v0d10v5 L=0.5 W=7 AD=0.98 AS=1.855 PD=7.28 PS=14.53 NRD=0 NRS=0 m=1 sa=250000 sb=250011 a=3.5 p=15
XM1 1 2 3 1 sky130_fd_pr__nfet_g5v0d10v5 L=0.5 W=7 AD=0.98 AS=0.98 PD=7.28 PS=7.28 NRD=0 NRS=0 m=1 sa=250001 sb=250010 a=3.5 p=15
XM2 3 2 1 1 sky130_fd_pr__nfet_g5v0d10v5 L=0.5 W=7 AD=0.98 AS=0.98 PD=7.28 PS=7.28 NRD=0 NRS=0 m=1 sa=250002 sb=250009 a=3.5 p=15
XM3 1 2 3 1 sky130_fd_pr__nfet_g5v0d10v5 L=0.5 W=7 AD=0.98 AS=0.98 PD=7.28 PS=7.28 NRD=0 NRS=0 m=1 sa=250002 sb=250009 a=3.5 p=15
XM4 3 2 1 1 sky130_fd_pr__nfet_g5v0d10v5 L=0.5 W=7 AD=0.98 AS=0.98 PD=7.28 PS=7.28 NRD=0 NRS=0 m=1 sa=250003 sb=250008 a=3.5 p=15
XM5 1 2 3 1 sky130_fd_pr__nfet_g5v0d10v5 L=0.5 W=7 AD=0.98 AS=0.98 PD=7.28 PS=7.28 NRD=0 NRS=0 m=1 sa=250004 sb=250007 a=3.5 p=15
XM6 3 2 1 1 sky130_fd_pr__nfet_g5v0d10v5 L=0.5 W=7 AD=0.98 AS=0.98 PD=7.28 PS=7.28 NRD=0 NRS=0 m=1 sa=250005 sb=250006 a=3.5 p=15
XM7 1 2 3 1 sky130_fd_pr__nfet_g5v0d10v5 L=0.5 W=7 AD=0.98 AS=0.98 PD=7.28 PS=7.28 NRD=0 NRS=0 m=1 sa=250005 sb=250005 a=3.5 p=15
XM8 3 2 1 1 sky130_fd_pr__nfet_g5v0d10v5 L=0.5 W=7 AD=0.98 AS=0.98 PD=7.28 PS=7.28 NRD=0 NRS=0 m=1 sa=250006 sb=250005 a=3.5 p=15
XM9 1 2 3 1 sky130_fd_pr__nfet_g5v0d10v5 L=0.5 W=7 AD=0.98 AS=0.98 PD=7.28 PS=7.28 NRD=0 NRS=0 m=1 sa=250007 sb=250004 a=3.5 p=15
XM10 3 2 1 1 sky130_fd_pr__nfet_g5v0d10v5 L=0.5 W=7 AD=0.98 AS=0.98 PD=7.28 PS=7.28 NRD=0 NRS=0 m=1 sa=250008 sb=250003 a=3.5 p=15
XM11 1 2 3 1 sky130_fd_pr__nfet_g5v0d10v5 L=0.5 W=7 AD=0.98 AS=0.98 PD=7.28 PS=7.28 NRD=0 NRS=0 m=1 sa=250009 sb=250002 a=3.5 p=15
XM12 3 2 1 1 sky130_fd_pr__nfet_g5v0d10v5 L=0.5 W=7 AD=0.98 AS=0.98 PD=7.28 PS=7.28 NRD=0 NRS=0 m=1 sa=250009 sb=250002 a=3.5 p=15
XM13 1 2 3 1 sky130_fd_pr__nfet_g5v0d10v5 L=0.5 W=7 AD=0.98 AS=0.98 PD=7.28 PS=7.28 NRD=0 NRS=0 m=1 sa=250010 sb=250001 a=3.5 p=15
XM14 3 2 1 1 sky130_fd_pr__nfet_g5v0d10v5 L=0.5 W=7 AD=1.855 AS=0.98 PD=14.53 PS=7.28 NRD=0 NRS=0 m=1 sa=250011 sb=250000 a=3.5 p=15
.ENDS
***************************************
.SUBCKT ICV_3 1 2
**
X0 1 2 sky130_fd_io__esd_rcclamp_nfetcap
X1 1 2 sky130_fd_io__esd_rcclamp_nfetcap
.ENDS
***************************************
.SUBCKT sky130_fd_pr__hvdftpl1s__example_55959141808671
**
.ENDS
***************************************
.SUBCKT sky130_fd_pr__hvdftpl1s2__example_55959141808672
**
.ENDS
***************************************
.SUBCKT sky130_fd_pr__nfet_01v8__example_55959141808670
**
*.SEEDPROM
.ENDS
***************************************
.SUBCKT sky130_fd_pr__hvdftpl1s__example_55959141808675
**
.ENDS
***************************************
.SUBCKT sky130_fd_pr__hvdftpl1s2__example_55959141808676
**
.ENDS
***************************************
.SUBCKT sky130_fd_pr__nfet_01v8__example_55959141808674
**
*.SEEDPROM
.ENDS
***************************************
.SUBCKT sky130_fd_pr__nfet_01v8__example_55959141808673
**
*.SEEDPROM
.ENDS
***************************************
.SUBCKT sky130_fd_pr__res_bent_po__example_55959141808668 2 3
**
R0 2 3 sky130_fd_pr__res_generic_po L=700 W=0.33 m=1
.ENDS
***************************************
.SUBCKT sky130_fd_pr__dfl1sd__example_55959141808336
**
*.SEEDPROM
.ENDS
***************************************
.SUBCKT sky130_fd_pr__dfl1sd2__example_55959141808666
**
*.SEEDPROM
.ENDS
***************************************
.SUBCKT ICV_4
**
*.SEEDPROM
.ENDS
***************************************
.SUBCKT ICV_5
**
*.SEEDPROM
.ENDS
***************************************
.SUBCKT ICV_6
**
*.SEEDPROM
.ENDS
***************************************
.SUBCKT ICV_7
**
*.SEEDPROM
.ENDS
***************************************
.SUBCKT sky130_fd_pr__pfet_01v8__example_55959141808665 2 3 4
**
*.SEEDPROM
XM0 4 3 2 2 sky130_fd_pr__pfet_g5v0d10v5 L=0.5 W=7 AD=0.98 AS=1.855 PD=7.28 PS=14.53 NRD=0 NRS=0 m=1 sa=250000 sb=250020 a=3.5 p=15
XM1 2 3 4 2 sky130_fd_pr__pfet_g5v0d10v5 L=0.5 W=7 AD=0.98 AS=0.98 PD=7.28 PS=7.28 NRD=0 NRS=0 m=1 sa=250001 sb=250020 a=3.5 p=15
XM2 4 3 2 2 sky130_fd_pr__pfet_g5v0d10v5 L=0.5 W=7 AD=0.98 AS=0.98 PD=7.28 PS=7.28 NRD=0 NRS=0 m=1 sa=250002 sb=250020 a=3.5 p=15
XM3 2 3 4 2 sky130_fd_pr__pfet_g5v0d10v5 L=0.5 W=7 AD=0.98 AS=0.98 PD=7.28 PS=7.28 NRD=0 NRS=0 m=1 sa=250002 sb=250020 a=3.5 p=15
XM4 4 3 2 2 sky130_fd_pr__pfet_g5v0d10v5 L=0.5 W=7 AD=0.98 AS=0.98 PD=7.28 PS=7.28 NRD=0 NRS=0 m=1 sa=250003 sb=250020 a=3.5 p=15
XM5 2 3 4 2 sky130_fd_pr__pfet_g5v0d10v5 L=0.5 W=7 AD=0.98 AS=0.98 PD=7.28 PS=7.28 NRD=0 NRS=0 m=1 sa=250004 sb=250020 a=3.5 p=15
XM6 4 3 2 2 sky130_fd_pr__pfet_g5v0d10v5 L=0.5 W=7 AD=0.98 AS=0.98 PD=7.28 PS=7.28 NRD=0 NRS=0 m=1 sa=250005 sb=250020 a=3.5 p=15
XM7 2 3 4 2 sky130_fd_pr__pfet_g5v0d10v5 L=0.5 W=7 AD=0.98 AS=0.98 PD=7.28 PS=7.28 NRD=0 NRS=0 m=1 sa=250005 sb=250020 a=3.5 p=15
XM8 4 3 2 2 sky130_fd_pr__pfet_g5v0d10v5 L=0.5 W=7 AD=0.98 AS=0.98 PD=7.28 PS=7.28 NRD=0 NRS=0 m=1 sa=250006 sb=250020 a=3.5 p=15
XM9 2 3 4 2 sky130_fd_pr__pfet_g5v0d10v5 L=0.5 W=7 AD=0.98 AS=0.98 PD=7.28 PS=7.28 NRD=0 NRS=0 m=1 sa=250007 sb=250020 a=3.5 p=15
XM10 4 3 2 2 sky130_fd_pr__pfet_g5v0d10v5 L=0.5 W=7 AD=0.98 AS=0.98 PD=7.28 PS=7.28 NRD=0 NRS=0 m=1 sa=250008 sb=250020 a=3.5 p=15
XM11 2 3 4 2 sky130_fd_pr__pfet_g5v0d10v5 L=0.5 W=7 AD=0.98 AS=0.98 PD=7.28 PS=7.28 NRD=0 NRS=0 m=1 sa=250009 sb=250020 a=3.5 p=15
XM12 4 3 2 2 sky130_fd_pr__pfet_g5v0d10v5 L=0.5 W=7 AD=0.98 AS=0.98 PD=7.28 PS=7.28 NRD=0 NRS=0 m=1 sa=250009 sb=250020 a=3.5 p=15
XM13 2 3 4 2 sky130_fd_pr__pfet_g5v0d10v5 L=0.5 W=7 AD=0.98 AS=0.98 PD=7.28 PS=7.28 NRD=0 NRS=0 m=1 sa=250010 sb=250020 a=3.5 p=15
XM14 4 3 2 2 sky130_fd_pr__pfet_g5v0d10v5 L=0.5 W=7 AD=0.98 AS=0.98 PD=7.28 PS=7.28 NRD=0 NRS=0 m=1 sa=250011 sb=250020 a=3.5 p=15
XM15 2 3 4 2 sky130_fd_pr__pfet_g5v0d10v5 L=0.5 W=7 AD=0.98 AS=0.98 PD=7.28 PS=7.28 NRD=0 NRS=0 m=1 sa=250012 sb=250020 a=3.5 p=15
XM16 4 3 2 2 sky130_fd_pr__pfet_g5v0d10v5 L=0.5 W=7 AD=0.98 AS=0.98 PD=7.28 PS=7.28 NRD=0 NRS=0 m=1 sa=250012 sb=250020 a=3.5 p=15
XM17 2 3 4 2 sky130_fd_pr__pfet_g5v0d10v5 L=0.5 W=7 AD=0.98 AS=0.98 PD=7.28 PS=7.28 NRD=0 NRS=0 m=1 sa=250013 sb=250020 a=3.5 p=15
XM18 4 3 2 2 sky130_fd_pr__pfet_g5v0d10v5 L=0.5 W=7 AD=0.98 AS=0.98 PD=7.28 PS=7.28 NRD=0 NRS=0 m=1 sa=250014 sb=250020 a=3.5 p=15
XM19 2 3 4 2 sky130_fd_pr__pfet_g5v0d10v5 L=0.5 W=7 AD=0.98 AS=0.98 PD=7.28 PS=7.28 NRD=0 NRS=0 m=1 sa=250015 sb=250020 a=3.5 p=15
XM20 4 3 2 2 sky130_fd_pr__pfet_g5v0d10v5 L=0.5 W=7 AD=0.98 AS=0.98 PD=7.28 PS=7.28 NRD=0 NRS=0 m=1 sa=250016 sb=250020 a=3.5 p=15
XM21 2 3 4 2 sky130_fd_pr__pfet_g5v0d10v5 L=0.5 W=7 AD=0.98 AS=0.98 PD=7.28 PS=7.28 NRD=0 NRS=0 m=1 sa=250016 sb=250020 a=3.5 p=15
XM22 4 3 2 2 sky130_fd_pr__pfet_g5v0d10v5 L=0.5 W=7 AD=0.98 AS=0.98 PD=7.28 PS=7.28 NRD=0 NRS=0 m=1 sa=250017 sb=250020 a=3.5 p=15
XM23 2 3 4 2 sky130_fd_pr__pfet_g5v0d10v5 L=0.5 W=7 AD=0.98 AS=0.98 PD=7.28 PS=7.28 NRD=0 NRS=0 m=1 sa=250018 sb=250020 a=3.5 p=15
XM24 4 3 2 2 sky130_fd_pr__pfet_g5v0d10v5 L=0.5 W=7 AD=0.98 AS=0.98 PD=7.28 PS=7.28 NRD=0 NRS=0 m=1 sa=250019 sb=250020 a=3.5 p=15
XM25 2 3 4 2 sky130_fd_pr__pfet_g5v0d10v5 L=0.5 W=7 AD=0.98 AS=0.98 PD=7.28 PS=7.28 NRD=0 NRS=0 m=1 sa=250020 sb=250019 a=3.5 p=15
XM26 4 3 2 2 sky130_fd_pr__pfet_g5v0d10v5 L=0.5 W=7 AD=0.98 AS=0.98 PD=7.28 PS=7.28 NRD=0 NRS=0 m=1 sa=250020 sb=250018 a=3.5 p=15
XM27 2 3 4 2 sky130_fd_pr__pfet_g5v0d10v5 L=0.5 W=7 AD=0.98 AS=0.98 PD=7.28 PS=7.28 NRD=0 NRS=0 m=1 sa=250020 sb=250017 a=3.5 p=15
XM28 4 3 2 2 sky130_fd_pr__pfet_g5v0d10v5 L=0.5 W=7 AD=0.98 AS=0.98 PD=7.28 PS=7.28 NRD=0 NRS=0 m=1 sa=250020 sb=250016 a=3.5 p=15
XM29 2 3 4 2 sky130_fd_pr__pfet_g5v0d10v5 L=0.5 W=7 AD=0.98 AS=0.98 PD=7.28 PS=7.28 NRD=0 NRS=0 m=1 sa=250020 sb=250016 a=3.5 p=15
XM30 4 3 2 2 sky130_fd_pr__pfet_g5v0d10v5 L=0.5 W=7 AD=0.98 AS=0.98 PD=7.28 PS=7.28 NRD=0 NRS=0 m=1 sa=250020 sb=250015 a=3.5 p=15
XM31 2 3 4 2 sky130_fd_pr__pfet_g5v0d10v5 L=0.5 W=7 AD=0.98 AS=0.98 PD=7.28 PS=7.28 NRD=0 NRS=0 m=1 sa=250020 sb=250014 a=3.5 p=15
XM32 4 3 2 2 sky130_fd_pr__pfet_g5v0d10v5 L=0.5 W=7 AD=0.98 AS=0.98 PD=7.28 PS=7.28 NRD=0 NRS=0 m=1 sa=250020 sb=250013 a=3.5 p=15
XM33 2 3 4 2 sky130_fd_pr__pfet_g5v0d10v5 L=0.5 W=7 AD=0.98 AS=0.98 PD=7.28 PS=7.28 NRD=0 NRS=0 m=1 sa=250020 sb=250012 a=3.5 p=15
XM34 4 3 2 2 sky130_fd_pr__pfet_g5v0d10v5 L=0.5 W=7 AD=0.98 AS=0.98 PD=7.28 PS=7.28 NRD=0 NRS=0 m=1 sa=250020 sb=250012 a=3.5 p=15
XM35 2 3 4 2 sky130_fd_pr__pfet_g5v0d10v5 L=0.5 W=7 AD=0.98 AS=0.98 PD=7.28 PS=7.28 NRD=0 NRS=0 m=1 sa=250020 sb=250011 a=3.5 p=15
XM36 4 3 2 2 sky130_fd_pr__pfet_g5v0d10v5 L=0.5 W=7 AD=0.98 AS=0.98 PD=7.28 PS=7.28 NRD=0 NRS=0 m=1 sa=250020 sb=250010 a=3.5 p=15
XM37 2 3 4 2 sky130_fd_pr__pfet_g5v0d10v5 L=0.5 W=7 AD=0.98 AS=0.98 PD=7.28 PS=7.28 NRD=0 NRS=0 m=1 sa=250020 sb=250009 a=3.5 p=15
XM38 4 3 2 2 sky130_fd_pr__pfet_g5v0d10v5 L=0.5 W=7 AD=0.98 AS=0.98 PD=7.28 PS=7.28 NRD=0 NRS=0 m=1 sa=250020 sb=250009 a=3.5 p=15
XM39 2 3 4 2 sky130_fd_pr__pfet_g5v0d10v5 L=0.5 W=7 AD=0.98 AS=0.98 PD=7.28 PS=7.28 NRD=0 NRS=0 m=1 sa=250020 sb=250008 a=3.5 p=15
XM40 4 3 2 2 sky130_fd_pr__pfet_g5v0d10v5 L=0.5 W=7 AD=0.98 AS=0.98 PD=7.28 PS=7.28 NRD=0 NRS=0 m=1 sa=250020 sb=250007 a=3.5 p=15
XM41 2 3 4 2 sky130_fd_pr__pfet_g5v0d10v5 L=0.5 W=7 AD=0.98 AS=0.98 PD=7.28 PS=7.28 NRD=0 NRS=0 m=1 sa=250020 sb=250006 a=3.5 p=15
XM42 4 3 2 2 sky130_fd_pr__pfet_g5v0d10v5 L=0.5 W=7 AD=0.98 AS=0.98 PD=7.28 PS=7.28 NRD=0 NRS=0 m=1 sa=250020 sb=250005 a=3.5 p=15
XM43 2 3 4 2 sky130_fd_pr__pfet_g5v0d10v5 L=0.5 W=7 AD=0.98 AS=0.98 PD=7.28 PS=7.28 NRD=0 NRS=0 m=1 sa=250020 sb=250005 a=3.5 p=15
XM44 4 3 2 2 sky130_fd_pr__pfet_g5v0d10v5 L=0.5 W=7 AD=0.98 AS=0.98 PD=7.28 PS=7.28 NRD=0 NRS=0 m=1 sa=250020 sb=250004 a=3.5 p=15
XM45 2 3 4 2 sky130_fd_pr__pfet_g5v0d10v5 L=0.5 W=7 AD=0.98 AS=0.98 PD=7.28 PS=7.28 NRD=0 NRS=0 m=1 sa=250020 sb=250003 a=3.5 p=15
XM46 4 3 2 2 sky130_fd_pr__pfet_g5v0d10v5 L=0.5 W=7 AD=0.98 AS=0.98 PD=7.28 PS=7.28 NRD=0 NRS=0 m=1 sa=250020 sb=250002 a=3.5 p=15
XM47 2 3 4 2 sky130_fd_pr__pfet_g5v0d10v5 L=0.5 W=7 AD=0.98 AS=0.98 PD=7.28 PS=7.28 NRD=0 NRS=0 m=1 sa=250020 sb=250002 a=3.5 p=15
XM48 4 3 2 2 sky130_fd_pr__pfet_g5v0d10v5 L=0.5 W=7 AD=0.98 AS=0.98 PD=7.28 PS=7.28 NRD=0 NRS=0 m=1 sa=250020 sb=250001 a=3.5 p=15
XM49 2 3 4 2 sky130_fd_pr__pfet_g5v0d10v5 L=0.5 W=7 AD=1.855 AS=0.98 PD=14.53 PS=7.28 NRD=0 NRS=0 m=1 sa=250020 sb=250000 a=3.5 p=15
.ENDS
***************************************
.SUBCKT sky130_fd_pr__res_bent_po__example_55959141808667 2 3
**
R0 2 3 sky130_fd_pr__res_generic_po L=1550 W=0.33 m=1
.ENDS
***************************************
.SUBCKT sky130_fd_io__top_power_hvc_wpadv2 VSSD SRC_BDY_HVC DRN_HVC VDDIO P_CORE P_PAD
**
*.CALIBRE ISOLATED NETS: OGC_HVC VCCHIB VCCD VDDA VSSIO VSWITCH VSSA AMUXBUS_B AMUXBUS_A VSSIO_Q VDDIO_Q
XM0 DRN_HVC 21 SRC_BDY_HVC SRC_BDY_HVC sky130_fd_pr__nfet_g5v0d10v5 L=0.5 W=20 AD=15.1 AS=13.9 PD=21.51 PS=41.39 NRD=2.5308 NRS=2.2458 m=1 sa=250001 sb=250020 a=10 p=41
XM1 DRN_HVC 21 SRC_BDY_HVC SRC_BDY_HVC sky130_fd_pr__nfet_g5v0d10v5 L=0.5 W=20 AD=15.1 AS=13.9 PD=21.51 PS=41.39 NRD=2.5308 NRS=2.2458 m=1 sa=250001 sb=250020 a=10 p=41
XM2 DRN_HVC 21 SRC_BDY_HVC SRC_BDY_HVC sky130_fd_pr__nfet_g5v0d10v5 L=0.5 W=20 AD=15.1 AS=13.9 PD=21.51 PS=41.39 NRD=2.5308 NRS=2.2458 m=1 sa=250001 sb=250020 a=10 p=41
XM3 DRN_HVC 21 SRC_BDY_HVC SRC_BDY_HVC sky130_fd_pr__nfet_g5v0d10v5 L=0.5 W=10 AD=7.55 AS=6.95 PD=11.51 PS=21.39 NRD=5.073 NRS=4.503 m=1 sa=250001 sb=250020 a=5 p=21
XM4 SRC_BDY_HVC 21 DRN_HVC SRC_BDY_HVC sky130_fd_pr__nfet_g5v0d10v5 L=0.5 W=20 AD=13.9 AS=15.1 PD=41.39 PS=21.51 NRD=2.2458 NRS=2.5308 m=1 sa=250003 sb=250020 a=10 p=41
XM5 SRC_BDY_HVC 21 DRN_HVC SRC_BDY_HVC sky130_fd_pr__nfet_g5v0d10v5 L=0.5 W=20 AD=13.9 AS=15.1 PD=41.39 PS=21.51 NRD=2.2458 NRS=2.5308 m=1 sa=250003 sb=250020 a=10 p=41
XM6 SRC_BDY_HVC 21 DRN_HVC SRC_BDY_HVC sky130_fd_pr__nfet_g5v0d10v5 L=0.5 W=20 AD=13.9 AS=15.1 PD=41.39 PS=21.51 NRD=2.2458 NRS=2.5308 m=1 sa=250003 sb=250020 a=10 p=41
XM7 SRC_BDY_HVC 21 DRN_HVC SRC_BDY_HVC sky130_fd_pr__nfet_g5v0d10v5 L=0.5 W=10 AD=6.95 AS=7.55 PD=21.39 PS=11.51 NRD=4.503 NRS=5.073 m=1 sa=250003 sb=250020 a=5 p=21
XM8 DRN_HVC 21 SRC_BDY_HVC SRC_BDY_HVC sky130_fd_pr__nfet_g5v0d10v5 L=0.5 W=20 AD=15.1 AS=13.9 PD=21.51 PS=41.39 NRD=2.5308 NRS=2.2458 m=1 sa=250006 sb=250020 a=10 p=41
XM9 DRN_HVC 21 SRC_BDY_HVC SRC_BDY_HVC sky130_fd_pr__nfet_g5v0d10v5 L=0.5 W=20 AD=15.1 AS=13.9 PD=21.51 PS=41.39 NRD=2.5308 NRS=2.2458 m=1 sa=250006 sb=250020 a=10 p=41
XM10 DRN_HVC 21 SRC_BDY_HVC SRC_BDY_HVC sky130_fd_pr__nfet_g5v0d10v5 L=0.5 W=20 AD=15.1 AS=13.9 PD=21.51 PS=41.39 NRD=2.5308 NRS=2.2458 m=1 sa=250006 sb=250020 a=10 p=41
XM11 DRN_HVC 21 SRC_BDY_HVC SRC_BDY_HVC sky130_fd_pr__nfet_g5v0d10v5 L=0.5 W=10 AD=7.55 AS=6.95 PD=11.51 PS=21.39 NRD=5.073 NRS=4.503 m=1 sa=250006 sb=250020 a=5 p=21
XM12 SRC_BDY_HVC 21 DRN_HVC SRC_BDY_HVC sky130_fd_pr__nfet_g5v0d10v5 L=0.5 W=20 AD=13.9 AS=15.1 PD=41.39 PS=21.51 NRD=2.2458 NRS=2.5308 m=1 sa=250008 sb=250020 a=10 p=41
XM13 SRC_BDY_HVC 21 DRN_HVC SRC_BDY_HVC sky130_fd_pr__nfet_g5v0d10v5 L=0.5 W=20 AD=13.9 AS=15.1 PD=41.39 PS=21.51 NRD=2.2458 NRS=2.5308 m=1 sa=250008 sb=250020 a=10 p=41
XM14 SRC_BDY_HVC 21 DRN_HVC SRC_BDY_HVC sky130_fd_pr__nfet_g5v0d10v5 L=0.5 W=20 AD=13.9 AS=15.1 PD=41.39 PS=21.51 NRD=2.2458 NRS=2.5308 m=1 sa=250008 sb=250020 a=10 p=41
XM15 SRC_BDY_HVC 21 DRN_HVC SRC_BDY_HVC sky130_fd_pr__nfet_g5v0d10v5 L=0.5 W=10 AD=6.95 AS=7.55 PD=21.39 PS=11.51 NRD=4.503 NRS=5.073 m=1 sa=250008 sb=250020 a=5 p=21
XM16 DRN_HVC 21 SRC_BDY_HVC SRC_BDY_HVC sky130_fd_pr__nfet_g5v0d10v5 L=0.5 W=20 AD=15.1 AS=13.9 PD=21.51 PS=41.39 NRD=2.5308 NRS=2.2458 m=1 sa=250010 sb=250020 a=10 p=41
XM17 DRN_HVC 21 SRC_BDY_HVC SRC_BDY_HVC sky130_fd_pr__nfet_g5v0d10v5 L=0.5 W=20 AD=15.1 AS=13.9 PD=21.51 PS=41.39 NRD=2.5308 NRS=2.2458 m=1 sa=250001 sb=250020 a=10 p=41
XM18 DRN_HVC 21 SRC_BDY_HVC SRC_BDY_HVC sky130_fd_pr__nfet_g5v0d10v5 L=0.5 W=20 AD=15.1 AS=13.9 PD=21.51 PS=41.39 NRD=2.5308 NRS=2.2458 m=1 sa=250001 sb=250020 a=10 p=41
XM19 DRN_HVC 21 SRC_BDY_HVC SRC_BDY_HVC sky130_fd_pr__nfet_g5v0d10v5 L=0.5 W=20 AD=15.1 AS=13.9 PD=21.51 PS=41.39 NRD=2.5308 NRS=2.2458 m=1 sa=250001 sb=250020 a=10 p=41
XM20 DRN_HVC 21 SRC_BDY_HVC SRC_BDY_HVC sky130_fd_pr__nfet_g5v0d10v5 L=0.5 W=20 AD=15.1 AS=13.9 PD=21.51 PS=41.39 NRD=2.5308 NRS=2.2458 m=1 sa=250010 sb=250020 a=10 p=41
XM21 DRN_HVC 21 SRC_BDY_HVC SRC_BDY_HVC sky130_fd_pr__nfet_g5v0d10v5 L=0.5 W=20 AD=15.1 AS=13.9 PD=21.51 PS=41.39 NRD=2.5308 NRS=2.2458 m=1 sa=250010 sb=250020 a=10 p=41
XM22 DRN_HVC 21 SRC_BDY_HVC SRC_BDY_HVC sky130_fd_pr__nfet_g5v0d10v5 L=0.5 W=10 AD=7.55 AS=6.95 PD=11.51 PS=21.39 NRD=5.073 NRS=4.503 m=1 sa=250010 sb=250020 a=5 p=21
XM23 SRC_BDY_HVC 21 DRN_HVC SRC_BDY_HVC sky130_fd_pr__nfet_g5v0d10v5 L=0.5 W=20 AD=13.9 AS=15.1 PD=41.39 PS=21.51 NRD=2.2458 NRS=2.5308 m=1 sa=250012 sb=250020 a=10 p=41
XM24 SRC_BDY_HVC 21 DRN_HVC SRC_BDY_HVC sky130_fd_pr__nfet_g5v0d10v5 L=0.5 W=20 AD=13.9 AS=15.1 PD=41.39 PS=21.51 NRD=2.2458 NRS=2.5308 m=1 sa=250003 sb=250020 a=10 p=41
XM25 SRC_BDY_HVC 21 DRN_HVC SRC_BDY_HVC sky130_fd_pr__nfet_g5v0d10v5 L=0.5 W=20 AD=13.9 AS=15.1 PD=41.39 PS=21.51 NRD=2.2458 NRS=2.5308 m=1 sa=250003 sb=250020 a=10 p=41
XM26 SRC_BDY_HVC 21 DRN_HVC SRC_BDY_HVC sky130_fd_pr__nfet_g5v0d10v5 L=0.5 W=20 AD=13.9 AS=15.1 PD=41.39 PS=21.51 NRD=2.2458 NRS=2.5308 m=1 sa=250003 sb=250020 a=10 p=41
XM27 SRC_BDY_HVC 21 DRN_HVC SRC_BDY_HVC sky130_fd_pr__nfet_g5v0d10v5 L=0.5 W=20 AD=13.9 AS=15.1 PD=41.39 PS=21.51 NRD=2.2458 NRS=2.5308 m=1 sa=250012 sb=250020 a=10 p=41
XM28 SRC_BDY_HVC 21 DRN_HVC SRC_BDY_HVC sky130_fd_pr__nfet_g5v0d10v5 L=0.5 W=20 AD=13.9 AS=15.1 PD=41.39 PS=21.51 NRD=2.2458 NRS=2.5308 m=1 sa=250012 sb=250020 a=10 p=41
XM29 SRC_BDY_HVC 21 DRN_HVC SRC_BDY_HVC sky130_fd_pr__nfet_g5v0d10v5 L=0.5 W=10 AD=6.95 AS=7.55 PD=21.39 PS=11.51 NRD=4.503 NRS=5.073 m=1 sa=250012 sb=250020 a=5 p=21
XM30 DRN_HVC 21 SRC_BDY_HVC SRC_BDY_HVC sky130_fd_pr__nfet_g5v0d10v5 L=0.5 W=20 AD=15.1 AS=13.9 PD=21.51 PS=41.39 NRD=2.5308 NRS=2.2458 m=1 sa=250015 sb=250020 a=10 p=41
XM31 DRN_HVC 21 SRC_BDY_HVC SRC_BDY_HVC sky130_fd_pr__nfet_g5v0d10v5 L=0.5 W=20 AD=15.1 AS=13.9 PD=21.51 PS=41.39 NRD=2.5308 NRS=2.2458 m=1 sa=250006 sb=250020 a=10 p=41
XM32 DRN_HVC 21 SRC_BDY_HVC SRC_BDY_HVC sky130_fd_pr__nfet_g5v0d10v5 L=0.5 W=20 AD=15.1 AS=13.9 PD=21.51 PS=41.39 NRD=2.5308 NRS=2.2458 m=1 sa=250006 sb=250020 a=10 p=41
XM33 DRN_HVC 21 SRC_BDY_HVC SRC_BDY_HVC sky130_fd_pr__nfet_g5v0d10v5 L=0.5 W=20 AD=15.1 AS=13.9 PD=21.51 PS=41.39 NRD=2.5308 NRS=2.2458 m=1 sa=250006 sb=250020 a=10 p=41
XM34 DRN_HVC 21 SRC_BDY_HVC SRC_BDY_HVC sky130_fd_pr__nfet_g5v0d10v5 L=0.5 W=20 AD=15.1 AS=13.9 PD=21.51 PS=41.39 NRD=2.5308 NRS=2.2458 m=1 sa=250015 sb=250020 a=10 p=41
XM35 DRN_HVC 21 SRC_BDY_HVC SRC_BDY_HVC sky130_fd_pr__nfet_g5v0d10v5 L=0.5 W=20 AD=15.1 AS=13.9 PD=21.51 PS=41.39 NRD=2.5308 NRS=2.2458 m=1 sa=250015 sb=250020 a=10 p=41
XM36 DRN_HVC 21 SRC_BDY_HVC SRC_BDY_HVC sky130_fd_pr__nfet_g5v0d10v5 L=0.5 W=10 AD=7.55 AS=6.95 PD=11.51 PS=21.39 NRD=5.073 NRS=4.503 m=1 sa=250015 sb=250020 a=5 p=21
XM37 SRC_BDY_HVC 21 DRN_HVC SRC_BDY_HVC sky130_fd_pr__nfet_g5v0d10v5 L=0.5 W=20 AD=13.9 AS=15.1 PD=41.39 PS=21.51 NRD=2.2458 NRS=2.5308 m=1 sa=250017 sb=250020 a=10 p=41
XM38 SRC_BDY_HVC 21 DRN_HVC SRC_BDY_HVC sky130_fd_pr__nfet_g5v0d10v5 L=0.5 W=20 AD=13.9 AS=15.1 PD=41.39 PS=21.51 NRD=2.2458 NRS=2.5308 m=1 sa=250008 sb=250020 a=10 p=41
XM39 SRC_BDY_HVC 21 DRN_HVC SRC_BDY_HVC sky130_fd_pr__nfet_g5v0d10v5 L=0.5 W=20 AD=13.9 AS=15.1 PD=41.39 PS=21.51 NRD=2.2458 NRS=2.5308 m=1 sa=250008 sb=250020 a=10 p=41
XM40 SRC_BDY_HVC 21 DRN_HVC SRC_BDY_HVC sky130_fd_pr__nfet_g5v0d10v5 L=0.5 W=20 AD=13.9 AS=15.1 PD=41.39 PS=21.51 NRD=2.2458 NRS=2.5308 m=1 sa=250008 sb=250020 a=10 p=41
XM41 SRC_BDY_HVC 21 DRN_HVC SRC_BDY_HVC sky130_fd_pr__nfet_g5v0d10v5 L=0.5 W=20 AD=13.9 AS=15.1 PD=41.39 PS=21.51 NRD=2.2458 NRS=2.5308 m=1 sa=250017 sb=250020 a=10 p=41
XM42 SRC_BDY_HVC 21 DRN_HVC SRC_BDY_HVC sky130_fd_pr__nfet_g5v0d10v5 L=0.5 W=20 AD=13.9 AS=15.1 PD=41.39 PS=21.51 NRD=2.2458 NRS=2.5308 m=1 sa=250017 sb=250020 a=10 p=41
XM43 SRC_BDY_HVC 21 DRN_HVC SRC_BDY_HVC sky130_fd_pr__nfet_g5v0d10v5 L=0.5 W=10 AD=6.95 AS=7.55 PD=21.39 PS=11.51 NRD=4.503 NRS=5.073 m=1 sa=250017 sb=250020 a=5 p=21
XM44 DRN_HVC 21 SRC_BDY_HVC SRC_BDY_HVC sky130_fd_pr__nfet_g5v0d10v5 L=0.5 W=20 AD=15.1 AS=13.9 PD=21.51 PS=41.39 NRD=2.5308 NRS=2.2458 m=1 sa=250020 sb=250020 a=10 p=41
XM45 DRN_HVC 21 SRC_BDY_HVC SRC_BDY_HVC sky130_fd_pr__nfet_g5v0d10v5 L=0.5 W=20 AD=15.1 AS=13.9 PD=21.51 PS=41.39 NRD=2.5308 NRS=2.2458 m=1 sa=250010 sb=250020 a=10 p=41
XM46 DRN_HVC 21 SRC_BDY_HVC SRC_BDY_HVC sky130_fd_pr__nfet_g5v0d10v5 L=0.5 W=20 AD=15.1 AS=13.9 PD=21.51 PS=41.39 NRD=2.5308 NRS=2.2458 m=1 sa=250010 sb=250020 a=10 p=41
XM47 DRN_HVC 21 SRC_BDY_HVC SRC_BDY_HVC sky130_fd_pr__nfet_g5v0d10v5 L=0.5 W=20 AD=15.1 AS=13.9 PD=21.51 PS=41.39 NRD=2.5308 NRS=2.2458 m=1 sa=250010 sb=250020 a=10 p=41
XM48 DRN_HVC 21 SRC_BDY_HVC SRC_BDY_HVC sky130_fd_pr__nfet_g5v0d10v5 L=0.5 W=20 AD=15.1 AS=13.9 PD=21.51 PS=41.39 NRD=2.5308 NRS=2.2458 m=1 sa=250020 sb=250020 a=10 p=41
XM49 DRN_HVC 21 SRC_BDY_HVC SRC_BDY_HVC sky130_fd_pr__nfet_g5v0d10v5 L=0.5 W=20 AD=15.1 AS=13.9 PD=21.51 PS=41.39 NRD=2.5308 NRS=2.2458 m=1 sa=250020 sb=250020 a=10 p=41
XM50 DRN_HVC 21 SRC_BDY_HVC SRC_BDY_HVC sky130_fd_pr__nfet_g5v0d10v5 L=0.5 W=10 AD=7.55 AS=6.95 PD=11.51 PS=21.39 NRD=5.073 NRS=4.503 m=1 sa=250020 sb=250020 a=5 p=21
XM51 SRC_BDY_HVC 21 DRN_HVC SRC_BDY_HVC sky130_fd_pr__nfet_g5v0d10v5 L=0.5 W=20 AD=13.9 AS=15.1 PD=41.39 PS=21.51 NRD=2.2458 NRS=2.5308 m=1 sa=250020 sb=250020 a=10 p=41
XM52 SRC_BDY_HVC 21 DRN_HVC SRC_BDY_HVC sky130_fd_pr__nfet_g5v0d10v5 L=0.5 W=20 AD=13.9 AS=15.1 PD=41.39 PS=21.51 NRD=2.2458 NRS=2.5308 m=1 sa=250012 sb=250020 a=10 p=41
XM53 SRC_BDY_HVC 21 DRN_HVC SRC_BDY_HVC sky130_fd_pr__nfet_g5v0d10v5 L=0.5 W=20 AD=13.9 AS=15.1 PD=41.39 PS=21.51 NRD=2.2458 NRS=2.5308 m=1 sa=250012 sb=250020 a=10 p=41
XM54 SRC_BDY_HVC 21 DRN_HVC SRC_BDY_HVC sky130_fd_pr__nfet_g5v0d10v5 L=0.5 W=20 AD=13.9 AS=15.1 PD=41.39 PS=21.51 NRD=2.2458 NRS=2.5308 m=1 sa=250012 sb=250020 a=10 p=41
XM55 SRC_BDY_HVC 21 DRN_HVC SRC_BDY_HVC sky130_fd_pr__nfet_g5v0d10v5 L=0.5 W=20 AD=13.9 AS=15.1 PD=41.39 PS=21.51 NRD=2.2458 NRS=2.5308 m=1 sa=250020 sb=250020 a=10 p=41
XM56 SRC_BDY_HVC 21 DRN_HVC SRC_BDY_HVC sky130_fd_pr__nfet_g5v0d10v5 L=0.5 W=20 AD=13.9 AS=15.1 PD=41.39 PS=21.51 NRD=2.2458 NRS=2.5308 m=1 sa=250020 sb=250020 a=10 p=41
XM57 SRC_BDY_HVC 21 DRN_HVC SRC_BDY_HVC sky130_fd_pr__nfet_g5v0d10v5 L=0.5 W=10 AD=6.95 AS=7.55 PD=21.39 PS=11.51 NRD=4.503 NRS=5.073 m=1 sa=250020 sb=250020 a=5 p=21
XM58 DRN_HVC 21 SRC_BDY_HVC SRC_BDY_HVC sky130_fd_pr__nfet_g5v0d10v5 L=0.5 W=20 AD=15.1 AS=13.9 PD=21.51 PS=41.39 NRD=2.5308 NRS=2.2458 m=1 sa=250020 sb=250020 a=10 p=41
XM59 DRN_HVC 21 SRC_BDY_HVC SRC_BDY_HVC sky130_fd_pr__nfet_g5v0d10v5 L=0.5 W=20 AD=15.1 AS=13.9 PD=21.51 PS=41.39 NRD=2.5308 NRS=2.2458 m=1 sa=250015 sb=250020 a=10 p=41
XM60 DRN_HVC 21 SRC_BDY_HVC SRC_BDY_HVC sky130_fd_pr__nfet_g5v0d10v5 L=0.5 W=20 AD=15.1 AS=13.9 PD=21.51 PS=41.39 NRD=2.5308 NRS=2.2458 m=1 sa=250015 sb=250020 a=10 p=41
XM61 DRN_HVC 21 SRC_BDY_HVC SRC_BDY_HVC sky130_fd_pr__nfet_g5v0d10v5 L=0.5 W=20 AD=15.1 AS=13.9 PD=21.51 PS=41.39 NRD=2.5308 NRS=2.2458 m=1 sa=250015 sb=250020 a=10 p=41
XM62 DRN_HVC 21 SRC_BDY_HVC SRC_BDY_HVC sky130_fd_pr__nfet_g5v0d10v5 L=0.5 W=20 AD=15.1 AS=13.9 PD=21.51 PS=41.39 NRD=2.5308 NRS=2.2458 m=1 sa=250020 sb=250020 a=10 p=41
XM63 DRN_HVC 21 SRC_BDY_HVC SRC_BDY_HVC sky130_fd_pr__nfet_g5v0d10v5 L=0.5 W=20 AD=15.1 AS=13.9 PD=21.51 PS=41.39 NRD=2.5308 NRS=2.2458 m=1 sa=250020 sb=250020 a=10 p=41
XM64 DRN_HVC 21 SRC_BDY_HVC SRC_BDY_HVC sky130_fd_pr__nfet_g5v0d10v5 L=0.5 W=10 AD=7.55 AS=6.95 PD=11.51 PS=21.39 NRD=5.073 NRS=4.503 m=1 sa=250020 sb=250020 a=5 p=21
XM65 SRC_BDY_HVC 21 DRN_HVC SRC_BDY_HVC sky130_fd_pr__nfet_g5v0d10v5 L=0.5 W=20 AD=13.9 AS=15.1 PD=41.39 PS=21.51 NRD=2.2458 NRS=2.5308 m=1 sa=250020 sb=250020 a=10 p=41
XM66 SRC_BDY_HVC 21 DRN_HVC SRC_BDY_HVC sky130_fd_pr__nfet_g5v0d10v5 L=0.5 W=20 AD=13.9 AS=15.1 PD=41.39 PS=21.51 NRD=2.2458 NRS=2.5308 m=1 sa=250017 sb=250020 a=10 p=41
XM67 SRC_BDY_HVC 21 DRN_HVC SRC_BDY_HVC sky130_fd_pr__nfet_g5v0d10v5 L=0.5 W=20 AD=13.9 AS=15.1 PD=41.39 PS=21.51 NRD=2.2458 NRS=2.5308 m=1 sa=250017 sb=250020 a=10 p=41
XM68 SRC_BDY_HVC 21 DRN_HVC SRC_BDY_HVC sky130_fd_pr__nfet_g5v0d10v5 L=0.5 W=20 AD=13.9 AS=15.1 PD=41.39 PS=21.51 NRD=2.2458 NRS=2.5308 m=1 sa=250017 sb=250020 a=10 p=41
XM69 SRC_BDY_HVC 21 DRN_HVC SRC_BDY_HVC sky130_fd_pr__nfet_g5v0d10v5 L=0.5 W=20 AD=13.9 AS=15.1 PD=41.39 PS=21.51 NRD=2.2458 NRS=2.5308 m=1 sa=250020 sb=250020 a=10 p=41
XM70 SRC_BDY_HVC 21 DRN_HVC SRC_BDY_HVC sky130_fd_pr__nfet_g5v0d10v5 L=0.5 W=20 AD=13.9 AS=15.1 PD=41.39 PS=21.51 NRD=2.2458 NRS=2.5308 m=1 sa=250020 sb=250020 a=10 p=41
XM71 SRC_BDY_HVC 21 DRN_HVC SRC_BDY_HVC sky130_fd_pr__nfet_g5v0d10v5 L=0.5 W=10 AD=6.95 AS=7.55 PD=21.39 PS=11.51 NRD=4.503 NRS=5.073 m=1 sa=250020 sb=250020 a=5 p=21
XM72 DRN_HVC 21 SRC_BDY_HVC SRC_BDY_HVC sky130_fd_pr__nfet_g5v0d10v5 L=0.5 W=20 AD=15.1 AS=13.9 PD=21.51 PS=41.39 NRD=2.5308 NRS=2.2458 m=1 sa=250020 sb=250020 a=10 p=41
XM73 DRN_HVC 21 SRC_BDY_HVC SRC_BDY_HVC sky130_fd_pr__nfet_g5v0d10v5 L=0.5 W=20 AD=15.1 AS=13.9 PD=21.51 PS=41.39 NRD=2.5308 NRS=2.2458 m=1 sa=250020 sb=250020 a=10 p=41
XM74 DRN_HVC 21 SRC_BDY_HVC SRC_BDY_HVC sky130_fd_pr__nfet_g5v0d10v5 L=0.5 W=20 AD=15.1 AS=13.9 PD=21.51 PS=41.39 NRD=2.5308 NRS=2.2458 m=1 sa=250020 sb=250020 a=10 p=41
XM75 DRN_HVC 21 SRC_BDY_HVC SRC_BDY_HVC sky130_fd_pr__nfet_g5v0d10v5 L=0.5 W=20 AD=15.1 AS=13.9 PD=21.51 PS=41.39 NRD=2.5308 NRS=2.2458 m=1 sa=250020 sb=250020 a=10 p=41
XM76 DRN_HVC 21 SRC_BDY_HVC SRC_BDY_HVC sky130_fd_pr__nfet_g5v0d10v5 L=0.5 W=20 AD=15.1 AS=13.9 PD=21.51 PS=41.39 NRD=2.5308 NRS=2.2458 m=1 sa=250020 sb=250020 a=10 p=41
XM77 DRN_HVC 21 SRC_BDY_HVC SRC_BDY_HVC sky130_fd_pr__nfet_g5v0d10v5 L=0.5 W=20 AD=15.1 AS=13.9 PD=21.51 PS=41.39 NRD=2.5308 NRS=2.2458 m=1 sa=250020 sb=250020 a=10 p=41
XM78 DRN_HVC 21 SRC_BDY_HVC SRC_BDY_HVC sky130_fd_pr__nfet_g5v0d10v5 L=0.5 W=10 AD=7.55 AS=6.95 PD=11.51 PS=21.39 NRD=5.073 NRS=4.503 m=1 sa=250020 sb=250020 a=5 p=21
XM79 SRC_BDY_HVC 21 DRN_HVC SRC_BDY_HVC sky130_fd_pr__nfet_g5v0d10v5 L=0.5 W=20 AD=13.9 AS=15.1 PD=41.39 PS=21.51 NRD=2.2458 NRS=2.5308 m=1 sa=250020 sb=250020 a=10 p=41
XM80 SRC_BDY_HVC 21 DRN_HVC SRC_BDY_HVC sky130_fd_pr__nfet_g5v0d10v5 L=0.5 W=20 AD=13.9 AS=15.1 PD=41.39 PS=21.51 NRD=2.2458 NRS=2.5308 m=1 sa=250020 sb=250020 a=10 p=41
XM81 SRC_BDY_HVC 21 DRN_HVC SRC_BDY_HVC sky130_fd_pr__nfet_g5v0d10v5 L=0.5 W=20 AD=13.9 AS=15.1 PD=41.39 PS=21.51 NRD=2.2458 NRS=2.5308 m=1 sa=250020 sb=250020 a=10 p=41
XM82 SRC_BDY_HVC 21 DRN_HVC SRC_BDY_HVC sky130_fd_pr__nfet_g5v0d10v5 L=0.5 W=20 AD=13.9 AS=15.1 PD=41.39 PS=21.51 NRD=2.2458 NRS=2.5308 m=1 sa=250020 sb=250020 a=10 p=41
XM83 SRC_BDY_HVC 21 DRN_HVC SRC_BDY_HVC sky130_fd_pr__nfet_g5v0d10v5 L=0.5 W=20 AD=13.9 AS=15.1 PD=41.39 PS=21.51 NRD=2.2458 NRS=2.5308 m=1 sa=250020 sb=250020 a=10 p=41
XM84 SRC_BDY_HVC 21 DRN_HVC SRC_BDY_HVC sky130_fd_pr__nfet_g5v0d10v5 L=0.5 W=20 AD=13.9 AS=15.1 PD=41.39 PS=21.51 NRD=2.2458 NRS=2.5308 m=1 sa=250020 sb=250020 a=10 p=41
XM85 SRC_BDY_HVC 21 DRN_HVC SRC_BDY_HVC sky130_fd_pr__nfet_g5v0d10v5 L=0.5 W=10 AD=6.95 AS=7.55 PD=21.39 PS=11.51 NRD=4.503 NRS=5.073 m=1 sa=250020 sb=250020 a=5 p=21
XM86 DRN_HVC 21 SRC_BDY_HVC SRC_BDY_HVC sky130_fd_pr__nfet_g5v0d10v5 L=0.5 W=20 AD=15.1 AS=13.9 PD=21.51 PS=41.39 NRD=2.5308 NRS=2.2458 m=1 sa=250020 sb=250017 a=10 p=41
XM87 DRN_HVC 21 SRC_BDY_HVC SRC_BDY_HVC sky130_fd_pr__nfet_g5v0d10v5 L=0.5 W=20 AD=15.1 AS=13.9 PD=21.51 PS=41.39 NRD=2.5308 NRS=2.2458 m=1 sa=250020 sb=250017 a=10 p=41
XM88 DRN_HVC 21 SRC_BDY_HVC SRC_BDY_HVC sky130_fd_pr__nfet_g5v0d10v5 L=0.5 W=20 AD=15.1 AS=13.9 PD=21.51 PS=41.39 NRD=2.5308 NRS=2.2458 m=1 sa=250020 sb=250017 a=10 p=41
XM89 DRN_HVC 21 SRC_BDY_HVC SRC_BDY_HVC sky130_fd_pr__nfet_g5v0d10v5 L=0.5 W=20 AD=15.1 AS=13.9 PD=21.51 PS=41.39 NRD=2.5308 NRS=2.2458 m=1 sa=250020 sb=250017 a=10 p=41
XM90 DRN_HVC 21 SRC_BDY_HVC SRC_BDY_HVC sky130_fd_pr__nfet_g5v0d10v5 L=0.5 W=20 AD=15.1 AS=13.9 PD=21.51 PS=41.39 NRD=2.5308 NRS=2.2458 m=1 sa=250020 sb=250017 a=10 p=41
XM91 DRN_HVC 21 SRC_BDY_HVC SRC_BDY_HVC sky130_fd_pr__nfet_g5v0d10v5 L=0.5 W=20 AD=15.1 AS=13.9 PD=21.51 PS=41.39 NRD=2.5308 NRS=2.2458 m=1 sa=250020 sb=250017 a=10 p=41
XM92 DRN_HVC 21 SRC_BDY_HVC SRC_BDY_HVC sky130_fd_pr__nfet_g5v0d10v5 L=0.5 W=10 AD=7.55 AS=6.95 PD=11.51 PS=21.39 NRD=5.073 NRS=4.503 m=1 sa=250020 sb=250017 a=5 p=21
XM93 SRC_BDY_HVC 21 DRN_HVC SRC_BDY_HVC sky130_fd_pr__nfet_g5v0d10v5 L=0.5 W=20 AD=13.9 AS=15.1 PD=41.39 PS=21.51 NRD=2.2458 NRS=2.5308 m=1 sa=250020 sb=250015 a=10 p=41
XM94 SRC_BDY_HVC 21 DRN_HVC SRC_BDY_HVC sky130_fd_pr__nfet_g5v0d10v5 L=0.5 W=20 AD=13.9 AS=15.1 PD=41.39 PS=21.51 NRD=2.2458 NRS=2.5308 m=1 sa=250020 sb=250015 a=10 p=41
XM95 SRC_BDY_HVC 21 DRN_HVC SRC_BDY_HVC sky130_fd_pr__nfet_g5v0d10v5 L=0.5 W=20 AD=13.9 AS=15.1 PD=41.39 PS=21.51 NRD=2.2458 NRS=2.5308 m=1 sa=250020 sb=250015 a=10 p=41
XM96 SRC_BDY_HVC 21 DRN_HVC SRC_BDY_HVC sky130_fd_pr__nfet_g5v0d10v5 L=0.5 W=20 AD=13.9 AS=15.1 PD=41.39 PS=21.51 NRD=2.2458 NRS=2.5308 m=1 sa=250020 sb=250015 a=10 p=41
XM97 SRC_BDY_HVC 21 DRN_HVC SRC_BDY_HVC sky130_fd_pr__nfet_g5v0d10v5 L=0.5 W=20 AD=13.9 AS=15.1 PD=41.39 PS=21.51 NRD=2.2458 NRS=2.5308 m=1 sa=250020 sb=250015 a=10 p=41
XM98 SRC_BDY_HVC 21 DRN_HVC SRC_BDY_HVC sky130_fd_pr__nfet_g5v0d10v5 L=0.5 W=20 AD=13.9 AS=15.1 PD=41.39 PS=21.51 NRD=2.2458 NRS=2.5308 m=1 sa=250020 sb=250015 a=10 p=41
XM99 SRC_BDY_HVC 21 DRN_HVC SRC_BDY_HVC sky130_fd_pr__nfet_g5v0d10v5 L=0.5 W=10 AD=6.95 AS=7.55 PD=21.39 PS=11.51 NRD=4.503 NRS=5.073 m=1 sa=250020 sb=250015 a=5 p=21
XM100 DRN_HVC 21 SRC_BDY_HVC SRC_BDY_HVC sky130_fd_pr__nfet_g5v0d10v5 L=0.5 W=20 AD=15.1 AS=13.9 PD=21.51 PS=41.39 NRD=2.5308 NRS=2.2458 m=1 sa=250020 sb=250012 a=10 p=41
XM101 DRN_HVC 21 SRC_BDY_HVC SRC_BDY_HVC sky130_fd_pr__nfet_g5v0d10v5 L=0.5 W=20 AD=15.1 AS=13.9 PD=21.51 PS=41.39 NRD=2.5308 NRS=2.2458 m=1 sa=250020 sb=250012 a=10 p=41
XM102 DRN_HVC 21 SRC_BDY_HVC SRC_BDY_HVC sky130_fd_pr__nfet_g5v0d10v5 L=0.5 W=20 AD=15.1 AS=13.9 PD=21.51 PS=41.39 NRD=2.5308 NRS=2.2458 m=1 sa=250020 sb=250012 a=10 p=41
XM103 DRN_HVC 21 SRC_BDY_HVC SRC_BDY_HVC sky130_fd_pr__nfet_g5v0d10v5 L=0.5 W=20 AD=15.1 AS=13.9 PD=21.51 PS=41.39 NRD=2.5308 NRS=2.2458 m=1 sa=250020 sb=250012 a=10 p=41