* SPICE NETLIST
***************************************

.SUBCKT MN g s d b
.ENDS
***************************************
.SUBCKT MP g s d b
.ENDS
***************************************
.SUBCKT condiode pin0 pin1
.ENDS
***************************************
.SUBCKT condiodeHvPsub pin0 pin1
.ENDS
***************************************
.SUBCKT sky130_fd_pr__nfet_g5v0d16v0 pin0 pin1 pin2 pin3
.ENDS
***************************************
.SUBCKT sky130_fd_pr__nfet_20v0 pin0 pin1 pin2 pin3
.ENDS
***************************************
.SUBCKT sky130_fd_pr__nfet_20v0_nvt pin0 pin1 pin2 pin3
.ENDS
***************************************
.SUBCKT sky130_fd_pr__nfet_20v0_iso pin0 pin1 pin2 pin3 pin4
.ENDS
***************************************
.SUBCKT sky130_fd_pr__nfet_20v0_nvt_iso pin0 pin1 pin2 pin3 pin4
.ENDS
***************************************
.SUBCKT sky130_fd_pr__pfet_g5v0d16v0 pin0 pin1 pin2 pin3
.ENDS
***************************************
.SUBCKT sky130_fd_pr__pfet_20v0 pin0 pin1 pin2 pin3
.ENDS
***************************************
.SUBCKT sky130_fd_pr__cap_var_lvt pin0 pin1 pin2
.ENDS
***************************************
.SUBCKT sky130_fd_pr__cap_var_hvt pin0 pin1 pin2
.ENDS
***************************************
.SUBCKT sky130_fd_pr__cap_var pin0 pin1 pin2
.ENDS
***************************************
.SUBCKT Dpar d0 d1
.ENDS
***************************************
.SUBCKT sky130_fd_pr__cap_vpp_08p6x07p8_l1m1m2_noshield_o1 pin0 pin1 pin2
.ENDS
***************************************
.SUBCKT sky130_fd_pr__cap_vpp_04p4x04p6_l1m1m2_noshield_o1 pin0 pin1 pin2
.ENDS
***************************************
.SUBCKT sky130_fd_pr__cap_vpp_04p4x04p6_m1m2_noshield_o1nhv pin0 pin1 pin2
.ENDS
***************************************
.SUBCKT sky130_fd_pr__cap_vpp_04p4x04p6_m1m2_noshield_o1phv pin0 pin1 pin2
.ENDS
***************************************
.SUBCKT sky130_fd_pr__cap_vpp_02p9x06p1_m1m2m3m4_shieldl1_fingercap2 pin0 pin1 pin2
.ENDS
***************************************
.SUBCKT sky130_fd_pr__cap_vpp_05p9x05p9_m1m2m3m4_shieldl1_wafflecap pin0 pin1 pin2
.ENDS
***************************************
.SUBCKT sky130_fd_pr__cap_vpp_11p3x11p3_m1m2m3m4_shieldl1_wafflecap pin0 pin1 pin2
.ENDS
***************************************
.SUBCKT sky130_fd_pr__cap_vpp_02p7x41p1_m1m2m3m4_shieldl1_fingercap pin0 pin1 pin2
.ENDS
***************************************
.SUBCKT sky130_fd_pr__cap_vpp_02p7x21p1_m1m2m3m4_shieldl1_fingercap pin0 pin1 pin2
.ENDS
***************************************
.SUBCKT sky130_fd_pr__cap_vpp_02p7x11p1_m1m2m3m4_shieldl1_fingercap pin0 pin1 pin2
.ENDS
***************************************
.SUBCKT sky130_fd_pr__cap_vpp_02p7x06p1_m1m2m3m4_shieldl1_fingercap pin0 pin1 pin2
.ENDS
***************************************
.SUBCKT sky130_fd_pr__cap_vpp_55p8x23p1_pol1m1m2m3m4m5_noshield_m5pullin pin0 pin1 pin2
.ENDS
***************************************
.SUBCKT sky130_fd_pr__cap_vpp_55p8x23p1_pol1m1m2m3m4m5_noshield pin0 pin1 pin2
.ENDS
***************************************
.SUBCKT sky130_fd_pr__cap_vpp_55p8x11p7_pol1m1m2m3m4m5_noshield_m5pullin pin0 pin1 pin2
.ENDS
***************************************
.SUBCKT sky130_fd_pr__cap_vpp_55p8x11p7_pol1m1m2m3m4m5_noshield pin0 pin1 pin2
.ENDS
***************************************
.SUBCKT sky130_fd_pr__cap_vpp_44p7x23p1_pol1m1m2m3m4m5_noshield pin0 pin1 pin2
.ENDS
***************************************
.SUBCKT sky130_fd_pr__cap_vpp_44p7x11p7_pol1m1m2m3m4m5_noshield pin0 pin1 pin2
.ENDS
***************************************
.SUBCKT sky130_fd_pr__cap_vpp_33p6x23p1_pol1m1m2m3m4m5_noshield pin0 pin1 pin2
.ENDS
***************************************
.SUBCKT sky130_fd_pr__cap_vpp_33p6x11p7_pol1m1m2m3m4m5_noshield pin0 pin1 pin2
.ENDS
***************************************
.SUBCKT sky130_fd_pr__cap_vpp_22p5x23p1_pol1m1m2m3m4m5_noshield pin0 pin1 pin2
.ENDS
***************************************
.SUBCKT sky130_fd_pr__cap_vpp_22p5x11p7_pol1m1m2m3m4m5_noshield pin0 pin1 pin2
.ENDS
***************************************
.SUBCKT sky130_fd_pr__cap_vpp_11p5x23p1_pol1m1m2m3m4m5_noshield pin0 pin1 pin2
.ENDS
***************************************
.SUBCKT sky130_fd_pr__cap_vpp_11p5x11p7_pol1m1m2m3m4m5_noshield pin0 pin1 pin2
.ENDS
***************************************
.SUBCKT sky130_fd_pr__cap_vpp_11p3x11p8_l1m1m2m3m4_shieldm5_nhv pin0 pin1 pin2 pin3
.ENDS
***************************************
.SUBCKT sky130_fd_pr__cap_vpp_11p5x11p7_l1m1m2m3m4_shieldpom5_x pin0 pin1 pin2 pin3
.ENDS
***************************************
.SUBCKT sky130_fd_pr__cap_vpp_04p4x04p6_m1m2m3_shieldl1m5_floatm4 pin0 pin1 pin2 pin3
.ENDS
***************************************
.SUBCKT sky130_fd_pr__cap_vpp_11p5x11p7_m1m2m3_shieldl1m5_floatm4 pin0 pin1 pin2 pin3
.ENDS
***************************************
.SUBCKT sky130_fd_pr__cap_vpp_08p6x07p8_m1m2m3_shieldl1m5_floatm4 pin0 pin1 pin2 pin3
.ENDS
***************************************
.SUBCKT sky130_fd_pr__cap_vpp_11p5x11p7_m1m2m3m4_shieldl1m5 pin0 pin1 pin2 pin3
.ENDS
***************************************
.SUBCKT sky130_fd_pr__cap_vpp_11p5x11p7_l1m1m2m3m4_shieldpom5 pin0 pin1 pin2 pin3
.ENDS
***************************************
.SUBCKT sky130_fd_pr__cap_vpp_11p5x11p7_l1m1m2m3m4_shieldm5 pin0 pin1 pin2 pin3
.ENDS
***************************************
.SUBCKT sky130_fd_pr__cap_vpp_06p8x06p1_m1m2m3_shieldl1m4 pin0 pin1 pin2 pin3
.ENDS
***************************************
.SUBCKT sky130_fd_pr__cap_vpp_06p8x06p1_l1m1m2m3_shieldpom4 pin0 pin1 pin2 pin3
.ENDS
***************************************
.SUBCKT sky130_fd_pr__cap_vpp_11p5x11p7_l1m1m2m3_shieldpom4 pin0 pin1 pin2 pin3
.ENDS
***************************************
.SUBCKT sky130_fd_pr__cap_vpp_11p5x11p7_l1m1m2m3_shieldm4 pin0 pin1 pin2 pin3
.ENDS
***************************************
.SUBCKT sky130_fd_pr__cap_vpp_01p8x01p8_m1m2_noshield pin0 pin1 pin2
.ENDS
***************************************
.SUBCKT sky130_fd_pr__cap_vpp_04p4x04p6_m1m2m3_shieldl1 pin0 pin1 pin2
.ENDS
***************************************
.SUBCKT sky130_fd_pr__cap_vpp_08p6x07p8_m1m2m3_shieldl1 pin0 pin1 pin2
.ENDS
***************************************
.SUBCKT sky130_fd_pr__cap_vpp_11p5x11p7_m1m2m3_shieldl1 pin0 pin1 pin2
.ENDS
***************************************
.SUBCKT sky130_fd_pr__cap_vpp_11p5x11p7_l1m1m2_shieldpom3 c0 c1 b term4
.ENDS
***************************************
.SUBCKT sky130_fd_pr__cap_vpp_08p6x07p8_l1m1m2_shieldpo_floatm3 c0 c1 b term4
.ENDS
***************************************
.SUBCKT sky130_fd_pr__cap_vpp_04p4x04p6_l1m1m2_shieldpo_floatm3 c0 c1 b term4
.ENDS
***************************************
.SUBCKT sky130_fd_pr__cap_vpp_03p9x03p9_m1m2_shieldl1_floatm3 c0 c1 b term4
.ENDS
***************************************
.SUBCKT sky130_fd_pr__cap_vpp_11p5x11p7_m1m2m3m4_shieldm5 pin0 pin1 pin2 pin3
.ENDS
***************************************
.SUBCKT sky130_fd_pr__cap_vpp_11p5x11p7_m1m4_noshield pin0 pin1 pin2
.ENDS
***************************************
.SUBCKT sky130_fd_pr__cap_vpp_11p5x11p7_m1m2_noshield pin0 pin1 pin2
.ENDS
***************************************
.SUBCKT sky130_fd_pr__cap_vpp_04p4x04p6_m1m2_noshield pin0 pin1 pin2
.ENDS
***************************************
.SUBCKT sky130_fd_pr__cap_vpp_02p4x04p6_m1m2_noshield pin0 pin1 pin2
.ENDS
***************************************
.SUBCKT sky130_fd_pr__cap_vpp_04p4x04p6_m1m2_noshield_o2 pin0 pin1 pin2
.ENDS
***************************************
.SUBCKT sky130_fd_pr__cap_vpp_08p6x07p8_m1m2_noshield pin0 pin1 pin2
.ENDS
***************************************
.SUBCKT balun pin0 pin1 pin2 pin3 pin4 pin5
.ENDS
***************************************
.SUBCKT sky130_fd_pr__ind_04 pin0 pin1 pin2 pin3
.ENDS
***************************************
.SUBCKT sky130_fd_pr__res_high_po_0p35 POS NEG SUB
.ENDS
***************************************
.SUBCKT sky130_fd_pr__res_xhigh_po_0p35 POS NEG SUB
.ENDS
***************************************
.SUBCKT sky130_fd_pr__res_high_po_0p69 POS NEG SUB
.ENDS
***************************************
.SUBCKT sky130_fd_pr__res_xhigh_po_0p69 POS NEG SUB
.ENDS
***************************************
.SUBCKT sky130_fd_pr__res_high_po_1p41 POS NEG SUB
.ENDS
***************************************
.SUBCKT sky130_fd_pr__res_xhigh_po_1p41 POS NEG SUB
.ENDS
***************************************
.SUBCKT sky130_fd_pr__res_high_po_2p85 POS NEG SUB
.ENDS
***************************************
.SUBCKT sky130_fd_pr__res_xhigh_po_2p85 POS NEG SUB
.ENDS
***************************************
.SUBCKT sky130_fd_pr__res_high_po_5p73 POS NEG SUB
.ENDS
***************************************
.SUBCKT sky130_fd_pr__res_xhigh_po_5p73 POS NEG SUB
.ENDS
***************************************
.SUBCKT Probe probe conductor
.ENDS
***************************************
.SUBCKT sky130_fd_pr__dfl1sd2__example_55959141808666
**
*.SEEDPROM
.ENDS
***************************************
.SUBCKT sky130_fd_pr__pfet_01v8__example_55959141808687 2 3 4
**
*.SEEDPROM
XM0 4 3 2 2 sky130_fd_pr__pfet_01v8 L=0.18 W=7 AD=0.98 AS=1.96 PD=7.28 PS=14.56 NRD=0 NRS=0 m=1 sa=90000.2 sb=90004.3
XM1 2 3 4 2 sky130_fd_pr__pfet_01v8 L=0.18 W=7 AD=0.98 AS=0.98 PD=7.28 PS=7.28 NRD=0 NRS=0 m=1 sa=90000.7 sb=90003.9
XM2 4 3 2 2 sky130_fd_pr__pfet_01v8 L=0.18 W=7 AD=0.98 AS=0.98 PD=7.28 PS=7.28 NRD=0 NRS=0 m=1 sa=90001.1 sb=90003.4
XM3 2 3 4 2 sky130_fd_pr__pfet_01v8 L=0.18 W=7 AD=0.98 AS=0.98 PD=7.28 PS=7.28 NRD=0 NRS=0 m=1 sa=90001.6 sb=90002.9
XM4 4 3 2 2 sky130_fd_pr__pfet_01v8 L=0.18 W=7 AD=0.98 AS=0.98 PD=7.28 PS=7.28 NRD=0 NRS=0 m=1 sa=90002 sb=90002.5
XM5 2 3 4 2 sky130_fd_pr__pfet_01v8 L=0.18 W=7 AD=0.98 AS=0.98 PD=7.28 PS=7.28 NRD=0 NRS=0 m=1 sa=90002.5 sb=90002
XM6 4 3 2 2 sky130_fd_pr__pfet_01v8 L=0.18 W=7 AD=0.98 AS=0.98 PD=7.28 PS=7.28 NRD=0 NRS=0 m=1 sa=90002.9 sb=90001.6
XM7 2 3 4 2 sky130_fd_pr__pfet_01v8 L=0.18 W=7 AD=0.98 AS=0.98 PD=7.28 PS=7.28 NRD=0 NRS=0 m=1 sa=90003.4 sb=90001.1
XM8 4 3 2 2 sky130_fd_pr__pfet_01v8 L=0.18 W=7 AD=0.98 AS=0.98 PD=7.28 PS=7.28 NRD=0 NRS=0 m=1 sa=90003.9 sb=90000.7
XM9 2 3 4 2 sky130_fd_pr__pfet_01v8 L=0.18 W=7 AD=1.96 AS=0.98 PD=14.56 PS=7.28 NRD=0 NRS=0 m=1 sa=90004.3 sb=90000.2
.ENDS
***************************************
.SUBCKT sky130_fd_pr__hvdfl1sd__example_5595914180851
**
*.SEEDPROM
.ENDS
***************************************
.SUBCKT sky130_fd_pr__dftpl1s2__example_55959141808702
**
*.SEEDPROM
.ENDS
***************************************
.SUBCKT sky130_fd_pr__dftpl1s2__example_55959141808694
**
*.SEEDPROM
.ENDS
***************************************
.SUBCKT sky130_fd_pr__dfl1__example_55959141808682
**
*.SEEDPROM
.ENDS
***************************************
.SUBCKT ICV_1
**
*.SEEDPROM
.ENDS
***************************************
.SUBCKT sky130_fd_pr__dfl1__example_55959141808681
**
*.SEEDPROM
.ENDS
***************************************
.SUBCKT ICV_2
**
*.SEEDPROM
.ENDS
***************************************
.SUBCKT sky130_fd_pr__hvdfl1sd2__example_55959141808378
**
*.SEEDPROM
.ENDS
***************************************
.SUBCKT sky130_fd_pr__tpl1__example_55959141808685
**
.ENDS
***************************************
.SUBCKT sky130_fd_pr__tpl1__example_55959141808686
**
.ENDS
***************************************
.SUBCKT sky130_fd_io__gnd2gnd_tap
**
.ENDS
***************************************
.SUBCKT sky130_fd_io__gnd2gnd_diff
**
.ENDS
***************************************
.SUBCKT sky130_fd_io__gnd2gnd_sub_dnwl 1 2
**
X0 1 2 sky130_fd_pr__model__parasitic__diode_ps2nw m=1
.ENDS
***************************************
.SUBCKT sky130_fd_pr__hvdfl1sd__example_55959141808700
**
*.SEEDPROM
.ENDS
***************************************
.SUBCKT sky130_fd_pr__hvdfl1sd2__example_55959141808559
**
*.SEEDPROM
.ENDS
***************************************
.SUBCKT sky130_fd_pr__nfet_01v8__example_55959141808699
**
*.SEEDPROM
.ENDS
***************************************
.SUBCKT sky130_fd_pr__dfl1sd2__example_55959141808679
**
*.SEEDPROM
.ENDS
***************************************
.SUBCKT sky130_fd_pr__nfet_01v8__example_55959141808696
**
*.SEEDPROM
.ENDS
***************************************
.SUBCKT sky130_fd_pr__nfet_01v8__example_55959141808701 1
**
*.SEEDPROM
X0 1 1 sky130_fd_pr__diode_pw2nd_05v5 m=1
X1 1 1 sky130_fd_pr__diode_pw2nd_05v5 m=1
.ENDS
***************************************
.SUBCKT sky130_fd_pr__nfet_01v8__example_55959141808703 1
**
*.SEEDPROM
X0 1 1 sky130_fd_pr__diode_pw2nd_05v5 m=1
X1 1 1 sky130_fd_pr__diode_pw2nd_05v5 m=1
.ENDS
***************************************
.SUBCKT sky130_fd_pr__nfet_01v8__example_55959141808705 1
**
*.SEEDPROM
X0 1 1 sky130_fd_pr__diode_pw2nd_05v5 m=1
X1 1 1 sky130_fd_pr__diode_pw2nd_05v5 m=1
.ENDS
***************************************
.SUBCKT sky130_fd_pr__nfet_01v8__example_55959141808693 1
**
*.SEEDPROM
X0 1 1 sky130_fd_pr__diode_pw2nd_05v5 m=1
X1 1 1 sky130_fd_pr__diode_pw2nd_05v5 m=1
.ENDS
***************************************
.SUBCKT sky130_ef_io__vccd_lvc_clamped_pad VSSD VCCD VDDIO VSSIO VCCHIB VDDA VSWITCH VSSA AMUXBUS_B AMUXBUS_A VSSIO_Q VDDIO_Q
**
XM0 VCCD 10 VSSD VSSD sky130_fd_pr__nfet_01v8 L=0.18 W=7 AD=3.535 AS=3.5 PD=8.01 PS=15 NRD=3.336 NRS=3.42 m=1 sa=90001.1 sb=90019.9
XM1 VCCD 10 VSSD VSSD sky130_fd_pr__nfet_01v8 L=0.18 W=7 AD=3.535 AS=3.5 PD=8.01 PS=15 NRD=3.336 NRS=3.42 m=1 sa=90001.1 sb=90019.9
XM2 VCCD 10 VSSD VSSD sky130_fd_pr__nfet_01v8 L=0.18 W=7 AD=3.535 AS=3.5 PD=8.01 PS=15 NRD=3.336 NRS=3.42 m=1 sa=90001.1 sb=90019.9
XM3 VCCD 10 VSSD VSSD sky130_fd_pr__nfet_01v8 L=0.18 W=7 AD=3.535 AS=3.5 PD=8.01 PS=15 NRD=3.336 NRS=3.42 m=1 sa=90001.1 sb=90019.9
XM4 VCCD 10 VSSD VSSD sky130_fd_pr__nfet_01v8 L=0.18 W=5 AD=2.525 AS=2.5 PD=6.01 PS=11 NRD=4.68 NRS=4.8 m=1 sa=90001.1 sb=90019.9
XM5 VCCD 6 VSSD VSSD sky130_fd_pr__nfet_01v8 L=0.18 W=7 AD=3.535 AS=3.5 PD=8.01 PS=15 NRD=3.336 NRS=3.42 m=1 sa=90001.1 sb=90019.9
XM6 VSSD 10 VCCD VSSD sky130_fd_pr__nfet_01v8 L=0.18 W=7 AD=3.5 AS=3.535 PD=15 PS=8.01 NRD=3.42 NRS=3.336 m=1 sa=90002.3 sb=90019.9
XM7 VSSD 10 VCCD VSSD sky130_fd_pr__nfet_01v8 L=0.18 W=7 AD=3.5 AS=3.535 PD=15 PS=8.01 NRD=3.42 NRS=3.336 m=1 sa=90002.3 sb=90019.9
XM8 VSSD 10 VCCD VSSD sky130_fd_pr__nfet_01v8 L=0.18 W=7 AD=3.5 AS=3.535 PD=15 PS=8.01 NRD=3.42 NRS=3.336 m=1 sa=90002.3 sb=90019.9
XM9 VSSD 10 VCCD VSSD sky130_fd_pr__nfet_01v8 L=0.18 W=7 AD=3.5 AS=3.535 PD=15 PS=8.01 NRD=3.42 NRS=3.336 m=1 sa=90002.3 sb=90019.9
XM10 VSSD 10 VCCD VSSD sky130_fd_pr__nfet_01v8 L=0.18 W=5 AD=2.5 AS=2.525 PD=11 PS=6.01 NRD=4.8 NRS=4.68 m=1 sa=90002.3 sb=90019.9
XM11 VSSD 6 VCCD VSSD sky130_fd_pr__nfet_01v8 L=0.18 W=7 AD=3.5 AS=3.535 PD=15 PS=8.01 NRD=3.42 NRS=3.336 m=1 sa=90002.3 sb=90019.9
XM12 VSSD 8 VSSD VSSD sky130_fd_pr__nfet_01v8 L=4 W=5 AD=0.7 AS=1.325 PD=5.28 PS=10.53 NRD=0 NRS=0 m=1 sa=2e+06 sb=2.00002e+06
XM13 VCCD 10 VSSD VSSD sky130_fd_pr__nfet_01v8 L=0.18 W=7 AD=3.535 AS=3.5 PD=8.01 PS=15 NRD=3.336 NRS=3.42 m=1 sa=90003.9 sb=90019.9
XM14 VCCD 10 VSSD VSSD sky130_fd_pr__nfet_01v8 L=0.18 W=7 AD=3.535 AS=3.5 PD=8.01 PS=15 NRD=3.336 NRS=3.42 m=1 sa=90003.9 sb=90019.9
XM15 VCCD 10 VSSD VSSD sky130_fd_pr__nfet_01v8 L=0.18 W=7 AD=3.535 AS=3.5 PD=8.01 PS=15 NRD=3.336 NRS=3.42 m=1 sa=90003.9 sb=90019.9
XM16 VCCD 10 VSSD VSSD sky130_fd_pr__nfet_01v8 L=0.18 W=7 AD=3.535 AS=3.5 PD=8.01 PS=15 NRD=3.336 NRS=3.42 m=1 sa=90003.9 sb=90019.9
XM17 VCCD 10 VSSD VSSD sky130_fd_pr__nfet_01v8 L=0.18 W=5 AD=2.525 AS=2.5 PD=6.01 PS=11 NRD=4.68 NRS=4.8 m=1 sa=90003.9 sb=90019.9
XM18 VCCD 6 VSSD VSSD sky130_fd_pr__nfet_01v8 L=0.18 W=7 AD=3.535 AS=3.5 PD=8.01 PS=15 NRD=3.336 NRS=3.42 m=1 sa=90001.1 sb=90019.9
XM19 VCCD 6 VSSD VSSD sky130_fd_pr__nfet_01v8 L=0.18 W=7 AD=3.535 AS=3.5 PD=8.01 PS=15 NRD=3.336 NRS=3.42 m=1 sa=90003.9 sb=90019.9
XM20 VCCD 6 VSSD VSSD sky130_fd_pr__nfet_01v8 L=0.18 W=7 AD=4.095 AS=7.875 PD=8.17 PS=16.25 NRD=4.704 NRS=14.136 m=1 sa=90001.7 sb=90019.9
XM21 VCCD 6 VSSD VSSD sky130_fd_pr__nfet_01v8 L=0.18 W=7 AD=4.095 AS=7.875 PD=8.17 PS=16.25 NRD=4.704 NRS=14.136 m=1 sa=90001.7 sb=90019.9
XM22 VCCD 6 VSSD VSSD sky130_fd_pr__nfet_01v8 L=0.18 W=7 AD=4.095 AS=7.875 PD=8.17 PS=16.25 NRD=4.704 NRS=14.136 m=1 sa=90001.7 sb=90019.9
XM23 VSSD 10 VCCD VSSD sky130_fd_pr__nfet_01v8 L=0.18 W=7 AD=3.5 AS=3.535 PD=15 PS=8.01 NRD=3.42 NRS=3.336 m=1 sa=90005.1 sb=90019.9
XM24 VSSD 10 VCCD VSSD sky130_fd_pr__nfet_01v8 L=0.18 W=7 AD=3.5 AS=3.535 PD=15 PS=8.01 NRD=3.42 NRS=3.336 m=1 sa=90005.1 sb=90019.9
XM25 VSSD 10 VCCD VSSD sky130_fd_pr__nfet_01v8 L=0.18 W=7 AD=3.5 AS=3.535 PD=15 PS=8.01 NRD=3.42 NRS=3.336 m=1 sa=90005.1 sb=90019.9
XM26 VSSD 10 VCCD VSSD sky130_fd_pr__nfet_01v8 L=0.18 W=7 AD=3.5 AS=3.535 PD=15 PS=8.01 NRD=3.42 NRS=3.336 m=1 sa=90005.1 sb=90019.9
XM27 VSSD 10 VCCD VSSD sky130_fd_pr__nfet_01v8 L=0.18 W=5 AD=2.5 AS=2.525 PD=11 PS=6.01 NRD=4.8 NRS=4.68 m=1 sa=90005.1 sb=90019.9
XM28 VSSD 6 VCCD VSSD sky130_fd_pr__nfet_01v8 L=0.18 W=7 AD=3.5 AS=3.535 PD=15 PS=8.01 NRD=3.42 NRS=3.336 m=1 sa=90002.3 sb=90019.9
XM29 VSSD 6 VCCD VSSD sky130_fd_pr__nfet_01v8 L=0.18 W=7 AD=3.5 AS=3.535 PD=15 PS=8.01 NRD=3.42 NRS=3.336 m=1 sa=90005.1 sb=90019.9
XM30 VSSD 6 VCCD VSSD sky130_fd_pr__nfet_01v8 L=0.18 W=7 AD=7.875 AS=4.095 PD=16.25 PS=8.17 NRD=14.136 NRS=4.704 m=1 sa=90003.1 sb=90019.9
XM31 VSSD 6 VCCD VSSD sky130_fd_pr__nfet_01v8 L=0.18 W=7 AD=7.875 AS=4.095 PD=16.25 PS=8.17 NRD=14.136 NRS=4.704 m=1 sa=90003.1 sb=90019.9
XM32 VSSD 6 VCCD VSSD sky130_fd_pr__nfet_01v8 L=0.18 W=7 AD=7.875 AS=4.095 PD=16.25 PS=8.17 NRD=14.136 NRS=4.704 m=1 sa=90003.1 sb=90019.9
XM33 VCCD 10 VSSD VSSD sky130_fd_pr__nfet_01v8 L=0.18 W=7 AD=3.535 AS=3.5 PD=8.01 PS=15 NRD=3.336 NRS=3.42 m=1 sa=90006.6 sb=90019.9
XM34 VCCD 10 VSSD VSSD sky130_fd_pr__nfet_01v8 L=0.18 W=7 AD=3.535 AS=3.5 PD=8.01 PS=15 NRD=3.336 NRS=3.42 m=1 sa=90006.6 sb=90019.9
XM35 VCCD 10 VSSD VSSD sky130_fd_pr__nfet_01v8 L=0.18 W=7 AD=3.535 AS=3.5 PD=8.01 PS=15 NRD=3.336 NRS=3.42 m=1 sa=90006.6 sb=90019.9
XM36 VCCD 10 VSSD VSSD sky130_fd_pr__nfet_01v8 L=0.18 W=7 AD=3.535 AS=3.5 PD=8.01 PS=15 NRD=3.336 NRS=3.42 m=1 sa=90006.6 sb=90019.9
XM37 VCCD 10 VSSD VSSD sky130_fd_pr__nfet_01v8 L=0.18 W=5 AD=2.525 AS=2.5 PD=6.01 PS=11 NRD=4.68 NRS=4.8 m=1 sa=90006.6 sb=90019.9
XM38 VCCD 6 VSSD VSSD sky130_fd_pr__nfet_01v8 L=0.18 W=7 AD=3.535 AS=3.5 PD=8.01 PS=15 NRD=3.336 NRS=3.42 m=1 sa=90003.9 sb=90019.9
XM39 VCCD 6 VSSD VSSD sky130_fd_pr__nfet_01v8 L=0.18 W=7 AD=3.535 AS=3.5 PD=8.01 PS=15 NRD=3.336 NRS=3.42 m=1 sa=90006.6 sb=90019.9
XM40 VSSD 10 VCCD VSSD sky130_fd_pr__nfet_01v8 L=0.18 W=7 AD=3.5 AS=3.535 PD=15 PS=8.01 NRD=3.42 NRS=3.336 m=1 sa=90007.8 sb=90019.9
XM41 VSSD 10 VCCD VSSD sky130_fd_pr__nfet_01v8 L=0.18 W=7 AD=3.5 AS=3.535 PD=15 PS=8.01 NRD=3.42 NRS=3.336 m=1 sa=90007.8 sb=90019.9
XM42 VSSD 10 VCCD VSSD sky130_fd_pr__nfet_01v8 L=0.18 W=7 AD=3.5 AS=3.535 PD=15 PS=8.01 NRD=3.42 NRS=3.336 m=1 sa=90007.8 sb=90019.9
XM43 VSSD 10 VCCD VSSD sky130_fd_pr__nfet_01v8 L=0.18 W=7 AD=3.5 AS=3.535 PD=15 PS=8.01 NRD=3.42 NRS=3.336 m=1 sa=90007.8 sb=90019.9
XM44 VSSD 10 VCCD VSSD sky130_fd_pr__nfet_01v8 L=0.18 W=5 AD=2.5 AS=2.525 PD=11 PS=6.01 NRD=4.8 NRS=4.68 m=1 sa=90007.8 sb=90019.9
XM45 VSSD 6 VCCD VSSD sky130_fd_pr__nfet_01v8 L=0.18 W=7 AD=3.5 AS=3.535 PD=15 PS=8.01 NRD=3.42 NRS=3.336 m=1 sa=90005.1 sb=90019.9
XM46 VSSD 6 VCCD VSSD sky130_fd_pr__nfet_01v8 L=0.18 W=7 AD=3.5 AS=3.535 PD=15 PS=8.01 NRD=3.42 NRS=3.336 m=1 sa=90007.8 sb=90019.9
XM47 VCCD 6 VSSD VSSD sky130_fd_pr__nfet_01v8 L=0.18 W=7 AD=4.095 AS=7.875 PD=8.17 PS=16.25 NRD=4.704 NRS=14.136 m=1 sa=90005.9 sb=90019.9
XM48 VCCD 6 VSSD VSSD sky130_fd_pr__nfet_01v8 L=0.18 W=7 AD=4.095 AS=7.875 PD=8.17 PS=16.25 NRD=4.704 NRS=14.136 m=1 sa=90005.9 sb=90019.9
XM49 VCCD 6 VSSD VSSD sky130_fd_pr__nfet_01v8 L=0.18 W=7 AD=4.095 AS=7.875 PD=8.17 PS=16.25 NRD=4.704 NRS=14.136 m=1 sa=90005.9 sb=90019.9
XM50 VCCD 10 VSSD VSSD sky130_fd_pr__nfet_01v8 L=0.18 W=7 AD=3.535 AS=3.5 PD=8.01 PS=15 NRD=3.336 NRS=3.42 m=1 sa=90009.4 sb=90019.9
XM51 VCCD 10 VSSD VSSD sky130_fd_pr__nfet_01v8 L=0.18 W=7 AD=3.535 AS=3.5 PD=8.01 PS=15 NRD=3.336 NRS=3.42 m=1 sa=90009.4 sb=90019.9
XM52 VCCD 10 VSSD VSSD sky130_fd_pr__nfet_01v8 L=0.18 W=7 AD=3.535 AS=3.5 PD=8.01 PS=15 NRD=3.336 NRS=3.42 m=1 sa=90009.4 sb=90019.9
XM53 VCCD 10 VSSD VSSD sky130_fd_pr__nfet_01v8 L=0.18 W=7 AD=3.535 AS=3.5 PD=8.01 PS=15 NRD=3.336 NRS=3.42 m=1 sa=90009.4 sb=90019.9
XM54 VCCD 10 VSSD VSSD sky130_fd_pr__nfet_01v8 L=0.18 W=5 AD=2.525 AS=2.5 PD=6.01 PS=11 NRD=4.68 NRS=4.8 m=1 sa=90009.4 sb=90019.9
XM55 VCCD 6 VSSD VSSD sky130_fd_pr__nfet_01v8 L=0.18 W=7 AD=3.535 AS=3.5 PD=8.01 PS=15 NRD=3.336 NRS=3.42 m=1 sa=90006.6 sb=90019.9
XM56 VCCD 6 VSSD VSSD sky130_fd_pr__nfet_01v8 L=0.18 W=7 AD=3.535 AS=3.5 PD=8.01 PS=15 NRD=3.336 NRS=3.42 m=1 sa=90009.4 sb=90019.9
XM57 VSSD 6 VCCD VSSD sky130_fd_pr__nfet_01v8 L=0.18 W=7 AD=7.875 AS=4.095 PD=16.25 PS=8.17 NRD=14.136 NRS=4.704 m=1 sa=90007.3 sb=90019.9
XM58 VSSD 6 VCCD VSSD sky130_fd_pr__nfet_01v8 L=0.18 W=7 AD=7.875 AS=4.095 PD=16.25 PS=8.17 NRD=14.136 NRS=4.704 m=1 sa=90007.3 sb=90019.9
XM59 VSSD 6 VCCD VSSD sky130_fd_pr__nfet_01v8 L=0.18 W=7 AD=7.875 AS=4.095 PD=16.25 PS=8.17 NRD=14.136 NRS=4.704 m=1 sa=90007.3 sb=90019.9
XM60 VSSD 10 VCCD VSSD sky130_fd_pr__nfet_01v8 L=0.18 W=7 AD=3.5 AS=3.535 PD=15 PS=8.01 NRD=3.42 NRS=3.336 m=1 sa=90010.6 sb=90019.9
XM61 VSSD 10 VCCD VSSD sky130_fd_pr__nfet_01v8 L=0.18 W=7 AD=3.5 AS=3.535 PD=15 PS=8.01 NRD=3.42 NRS=3.336 m=1 sa=90010.6 sb=90019.9
XM62 VSSD 10 VCCD VSSD sky130_fd_pr__nfet_01v8 L=0.18 W=7 AD=3.5 AS=3.535 PD=15 PS=8.01 NRD=3.42 NRS=3.336 m=1 sa=90010.6 sb=90019.9
XM63 VSSD 10 VCCD VSSD sky130_fd_pr__nfet_01v8 L=0.18 W=7 AD=3.5 AS=3.535 PD=15 PS=8.01 NRD=3.42 NRS=3.336 m=1 sa=90010.6 sb=90019.9
XM64 VSSD 10 VCCD VSSD sky130_fd_pr__nfet_01v8 L=0.18 W=5 AD=2.5 AS=2.525 PD=11 PS=6.01 NRD=4.8 NRS=4.68 m=1 sa=90010.6 sb=90019.9
XM65 VSSD 6 VCCD VSSD sky130_fd_pr__nfet_01v8 L=0.18 W=7 AD=3.5 AS=3.535 PD=15 PS=8.01 NRD=3.42 NRS=3.336 m=1 sa=90007.8 sb=90019.9
XM66 VSSD 6 VCCD VSSD sky130_fd_pr__nfet_01v8 L=0.18 W=7 AD=3.5 AS=3.535 PD=15 PS=8.01 NRD=3.42 NRS=3.336 m=1 sa=90010.6 sb=90019.9
XM67 VSSD 8 10 VSSD sky130_fd_pr__nfet_01v8 L=0.18 W=7 AD=2.3975 AS=4.76 PD=7.685 PS=15.36 NRD=6.936 NRS=6.852 m=1 sa=90000.6 sb=90019.9
XM68 VSSD 8 10 VSSD sky130_fd_pr__nfet_01v8 L=0.18 W=7 AD=2.3975 AS=4.76 PD=7.685 PS=15.36 NRD=6.936 NRS=6.852 m=1 sa=90000.6 sb=90019.9
XM69 VSSD 4 6 VSSD sky130_fd_pr__nfet_01v8 L=0.18 W=7 AD=2.3975 AS=4.76 PD=7.685 PS=15.36 NRD=6.936 NRS=6.852 m=1 sa=90000.6 sb=90019.9
XM70 VSSD 4 6 VSSD sky130_fd_pr__nfet_01v8 L=0.18 W=7 AD=2.3975 AS=4.76 PD=7.685 PS=15.36 NRD=6.936 NRS=6.852 m=1 sa=90000.6 sb=90019.9
XM71 VSSD 4 6 VSSD sky130_fd_pr__nfet_01v8 L=0.18 W=7 AD=2.3975 AS=4.76 PD=7.685 PS=15.36 NRD=6.936 NRS=6.852 m=1 sa=90000.6 sb=90019.9
XM72 VSSD 8 VSSD VSSD sky130_fd_pr__nfet_01v8 L=8 W=5 AD=0.7 AS=0.7 PD=5.28 PS=5.28 NRD=0 NRS=0 m=1 sa=4e+06 sb=4.00002e+06
XM73 VCCD 10 VSSD VSSD sky130_fd_pr__nfet_01v8 L=0.18 W=7 AD=3.535 AS=3.5 PD=8.01 PS=15 NRD=3.336 NRS=3.42 m=1 sa=90012.2 sb=90019.9
XM74 VCCD 10 VSSD VSSD sky130_fd_pr__nfet_01v8 L=0.18 W=7 AD=3.535 AS=3.5 PD=8.01 PS=15 NRD=3.336 NRS=3.42 m=1 sa=90012.2 sb=90019.9
XM75 VCCD 10 VSSD VSSD sky130_fd_pr__nfet_01v8 L=0.18 W=7 AD=3.535 AS=3.5 PD=8.01 PS=15 NRD=3.336 NRS=3.42 m=1 sa=90012.2 sb=90019.9
XM76 VCCD 10 VSSD VSSD sky130_fd_pr__nfet_01v8 L=0.18 W=7 AD=3.535 AS=3.5 PD=8.01 PS=15 NRD=3.336 NRS=3.42 m=1 sa=90012.2 sb=90019.9
XM77 VCCD 10 VSSD VSSD sky130_fd_pr__nfet_01v8 L=0.18 W=5 AD=2.525 AS=2.5 PD=6.01 PS=11 NRD=4.68 NRS=4.8 m=1 sa=90012.2 sb=90019.9
XM78 VCCD 6 VSSD VSSD sky130_fd_pr__nfet_01v8 L=0.18 W=7 AD=3.535 AS=3.5 PD=8.01 PS=15 NRD=3.336 NRS=3.42 m=1 sa=90009.4 sb=90019.9
XM79 VCCD 6 VSSD VSSD sky130_fd_pr__nfet_01v8 L=0.18 W=7 AD=3.535 AS=3.5 PD=8.01 PS=15 NRD=3.336 NRS=3.42 m=1 sa=90012.2 sb=90019.9
XM80 VCCD 6 VSSD VSSD sky130_fd_pr__nfet_01v8 L=0.18 W=5 AD=2.925 AS=5.625 PD=6.17 PS=12.25 NRD=6.6 NRS=19.788 m=1 sa=90001.7 sb=90019.9
XM81 VCCD 6 VSSD VSSD sky130_fd_pr__nfet_01v8 L=0.18 W=7 AD=4.095 AS=7.875 PD=8.17 PS=16.25 NRD=4.704 NRS=14.136 m=1 sa=90001.7 sb=90019.9
XM82 VCCD 6 VSSD VSSD sky130_fd_pr__nfet_01v8 L=0.18 W=7 AD=4.095 AS=7.875 PD=8.17 PS=16.25 NRD=4.704 NRS=14.136 m=1 sa=90010.1 sb=90019.9
XM83 VCCD 6 VSSD VSSD sky130_fd_pr__nfet_01v8 L=0.18 W=7 AD=4.095 AS=7.875 PD=8.17 PS=16.25 NRD=4.704 NRS=14.136 m=1 sa=90010.1 sb=90019.9
XM84 VCCD 6 VSSD VSSD sky130_fd_pr__nfet_01v8 L=0.18 W=7 AD=4.095 AS=7.875 PD=8.17 PS=16.25 NRD=4.704 NRS=14.136 m=1 sa=90010.1 sb=90019.9
XM85 VSSD 10 VCCD VSSD sky130_fd_pr__nfet_01v8 L=0.18 W=7 AD=3.5 AS=3.535 PD=15 PS=8.01 NRD=3.42 NRS=3.336 m=1 sa=90013.4 sb=90019.9
XM86 VSSD 10 VCCD VSSD sky130_fd_pr__nfet_01v8 L=0.18 W=7 AD=3.5 AS=3.535 PD=15 PS=8.01 NRD=3.42 NRS=3.336 m=1 sa=90013.4 sb=90019.9
XM87 VSSD 10 VCCD VSSD sky130_fd_pr__nfet_01v8 L=0.18 W=7 AD=3.5 AS=3.535 PD=15 PS=8.01 NRD=3.42 NRS=3.336 m=1 sa=90013.4 sb=90019.9
XM88 VSSD 10 VCCD VSSD sky130_fd_pr__nfet_01v8 L=0.18 W=7 AD=3.5 AS=3.535 PD=15 PS=8.01 NRD=3.42 NRS=3.336 m=1 sa=90013.4 sb=90019.9
XM89 VSSD 10 VCCD VSSD sky130_fd_pr__nfet_01v8 L=0.18 W=5 AD=2.5 AS=2.525 PD=11 PS=6.01 NRD=4.8 NRS=4.68 m=1 sa=90013.4 sb=90019.9
XM90 VSSD 6 VCCD VSSD sky130_fd_pr__nfet_01v8 L=0.18 W=7 AD=3.5 AS=3.535 PD=15 PS=8.01 NRD=3.42 NRS=3.336 m=1 sa=90010.6 sb=90019.9
XM91 VSSD 6 VCCD VSSD sky130_fd_pr__nfet_01v8 L=0.18 W=7 AD=3.5 AS=3.535 PD=15 PS=8.01 NRD=3.42 NRS=3.336 m=1 sa=90013.4 sb=90019.9
XM92 VSSD 6 VCCD VSSD sky130_fd_pr__nfet_01v8 L=0.18 W=5 AD=5.625 AS=2.925 PD=12.25 PS=6.17 NRD=19.788 NRS=6.6 m=1 sa=90003.1 sb=90019.9
XM93 VSSD 6 VCCD VSSD sky130_fd_pr__nfet_01v8 L=0.18 W=7 AD=7.875 AS=4.095 PD=16.25 PS=8.17 NRD=14.136 NRS=4.704 m=1 sa=90003.1 sb=90019.9
XM94 VSSD 6 VCCD VSSD sky130_fd_pr__nfet_01v8 L=0.18 W=7 AD=7.875 AS=4.095 PD=16.25 PS=8.17 NRD=14.136 NRS=4.704 m=1 sa=90011.4 sb=90019.9
XM95 VSSD 6 VCCD VSSD sky130_fd_pr__nfet_01v8 L=0.18 W=7 AD=7.875 AS=4.095 PD=16.25 PS=8.17 NRD=14.136 NRS=4.704 m=1 sa=90011.4 sb=90019.9
XM96 VSSD 6 VCCD VSSD sky130_fd_pr__nfet_01v8 L=0.18 W=7 AD=7.875 AS=4.095 PD=16.25 PS=8.17 NRD=14.136 NRS=4.704 m=1 sa=90011.4 sb=90019.9
XM97 VCCD 10 VSSD VSSD sky130_fd_pr__nfet_01v8 L=0.18 W=7 AD=3.535 AS=3.5 PD=8.01 PS=15 NRD=3.336 NRS=3.42 m=1 sa=90015 sb=90019.9
XM98 VCCD 10 VSSD VSSD sky130_fd_pr__nfet_01v8 L=0.18 W=7 AD=3.535 AS=3.5 PD=8.01 PS=15 NRD=3.336 NRS=3.42 m=1 sa=90015 sb=90019.9
XM99 VCCD 10 VSSD VSSD sky130_fd_pr__nfet_01v8 L=0.18 W=7 AD=3.535 AS=3.5 PD=8.01 PS=15 NRD=3.336 NRS=3.42 m=1 sa=90015 sb=90019.9
XM100 VCCD 10 VSSD VSSD sky130_fd_pr__nfet_01v8 L=0.18 W=7 AD=3.535 AS=3.5 PD=8.01 PS=15 NRD=3.336 NRS=3.42 m=1 sa=90015 sb=90019.9
XM101 VCCD 10 VSSD VSSD sky130_fd_pr__nfet_01v8 L=0.18 W=5 AD=2.525 AS=2.5 PD=6.01 PS=11 NRD=4.68 NRS=4.8 m=1 sa=90015 sb=90019.9
XM102 VCCD 6 VSSD VSSD sky130_fd_pr__nfet_01v8 L=0.18 W=7 AD=3.535 AS=3.5 PD=8.01 PS=15 NRD=3.336 NRS=3.42 m=1 sa=90012.2 sb=90019.9
XM103 VCCD 6 VSSD VSSD sky130_fd_pr__nfet_01v8 L=0.18 W=7 AD=3.535 AS=3.5 PD=8.01 PS=15 NRD=3.336 NRS=3.42 m=1 sa=90015 sb=90019.9
XM104 VSSD 10 VCCD VSSD sky130_fd_pr__nfet_01v8 L=0.18 W=7 AD=3.5 AS=3.535 PD=15 PS=8.01 NRD=3.42 NRS=3.336 m=1 sa=90016.2 sb=90019.9
XM105 VSSD 10 VCCD VSSD sky130_fd_pr__nfet_01v8 L=0.18 W=7 AD=3.5 AS=3.535 PD=15 PS=8.01 NRD=3.42 NRS=3.336 m=1 sa=90016.2 sb=90019.9
XM106 VSSD 10 VCCD VSSD sky130_fd_pr__nfet_01v8 L=0.18 W=7 AD=3.5 AS=3.535 PD=15 PS=8.01 NRD=3.42 NRS=3.336 m=1 sa=90016.2 sb=90019.9
XM107 VSSD 10 VCCD VSSD sky130_fd_pr__nfet_01v8 L=0.18 W=7 AD=3.5 AS=3.535 PD=15 PS=8.01 NRD=3.42 NRS=3.336 m=1 sa=90016.2 sb=90019.9
XM108 VSSD 10 VCCD VSSD sky130_fd_pr__nfet_01v8 L=0.18 W=5 AD=2.5 AS=2.525 PD=11 PS=6.01 NRD=4.8 NRS=4.68 m=1 sa=90016.1 sb=90019.9
XM109 VSSD 6 VCCD VSSD sky130_fd_pr__nfet_01v8 L=0.18 W=7 AD=3.5 AS=3.535 PD=15 PS=8.01 NRD=3.42 NRS=3.336 m=1 sa=90013.4 sb=90019.9
XM110 VSSD 6 VCCD VSSD sky130_fd_pr__nfet_01v8 L=0.18 W=7 AD=3.5 AS=3.535 PD=15 PS=8.01 NRD=3.42 NRS=3.336 m=1 sa=90016.2 sb=90019.9
XM111 VCCD 6 VSSD VSSD sky130_fd_pr__nfet_01v8 L=0.18 W=5 AD=2.925 AS=5.625 PD=6.17 PS=12.25 NRD=6.6 NRS=19.788 m=1 sa=90005.9 sb=90019.9
XM112 VCCD 6 VSSD VSSD sky130_fd_pr__nfet_01v8 L=0.18 W=7 AD=4.095 AS=7.875 PD=8.17 PS=16.25 NRD=4.704 NRS=14.136 m=1 sa=90005.9 sb=90019.9
XM113 VCCD 6 VSSD VSSD sky130_fd_pr__nfet_01v8 L=0.18 W=7 AD=4.095 AS=7.875 PD=8.17 PS=16.25 NRD=4.704 NRS=14.136 m=1 sa=90014.3 sb=90019.9
XM114 VCCD 6 VSSD VSSD sky130_fd_pr__nfet_01v8 L=0.18 W=7 AD=4.095 AS=7.875 PD=8.17 PS=16.25 NRD=4.704 NRS=14.136 m=1 sa=90014.3 sb=90019.9
XM115 VCCD 6 VSSD VSSD sky130_fd_pr__nfet_01v8 L=0.18 W=7 AD=4.095 AS=7.875 PD=8.17 PS=16.25 NRD=4.704 NRS=14.136 m=1 sa=90014.3 sb=90019.9
XM116 VCCD 10 VSSD VSSD sky130_fd_pr__nfet_01v8 L=0.18 W=7 AD=3.535 AS=3.5 PD=8.01 PS=15 NRD=3.336 NRS=3.42 m=1 sa=90017.7 sb=90019.9
XM117 VCCD 10 VSSD VSSD sky130_fd_pr__nfet_01v8 L=0.18 W=7 AD=3.535 AS=3.5 PD=8.01 PS=15 NRD=3.336 NRS=3.42 m=1 sa=90017.7 sb=90019.9
XM118 VCCD 10 VSSD VSSD sky130_fd_pr__nfet_01v8 L=0.18 W=7 AD=3.535 AS=3.5 PD=8.01 PS=15 NRD=3.336 NRS=3.42 m=1 sa=90017.7 sb=90019.9
XM119 VCCD 10 VSSD VSSD sky130_fd_pr__nfet_01v8 L=0.18 W=7 AD=3.535 AS=3.5 PD=8.01 PS=15 NRD=3.336 NRS=3.42 m=1 sa=90017.7 sb=90019.9
XM120 VCCD 10 VSSD VSSD sky130_fd_pr__nfet_01v8 L=0.18 W=5 AD=2.525 AS=2.5 PD=6.01 PS=11 NRD=4.68 NRS=4.8 m=1 sa=90017.7 sb=90019.9
XM121 VCCD 6 VSSD VSSD sky130_fd_pr__nfet_01v8 L=0.18 W=7 AD=3.535 AS=3.5 PD=8.01 PS=15 NRD=3.336 NRS=3.42 m=1 sa=90015 sb=90019.9
XM122 VCCD 6 VSSD VSSD sky130_fd_pr__nfet_01v8 L=0.18 W=7 AD=3.535 AS=3.5 PD=8.01 PS=15 NRD=3.336 NRS=3.42 m=1 sa=90017.7 sb=90019.9
XM123 VSSD 6 VCCD VSSD sky130_fd_pr__nfet_01v8 L=0.18 W=5 AD=5.625 AS=2.925 PD=12.25 PS=6.17 NRD=19.788 NRS=6.6 m=1 sa=90007.3 sb=90019.9
XM124 VSSD 6 VCCD VSSD sky130_fd_pr__nfet_01v8 L=0.18 W=7 AD=7.875 AS=4.095 PD=16.25 PS=8.17 NRD=14.136 NRS=4.704 m=1 sa=90007.3 sb=90019.9
XM125 VSSD 6 VCCD VSSD sky130_fd_pr__nfet_01v8 L=0.18 W=7 AD=7.875 AS=4.095 PD=16.25 PS=8.17 NRD=14.136 NRS=4.704 m=1 sa=90015.6 sb=90019.9