* SPICE NETLIST
***************************************

.SUBCKT MN g s d b
.ENDS
***************************************
.SUBCKT MP g s d b
.ENDS
***************************************
.SUBCKT condiode pin0 pin1
.ENDS
***************************************
.SUBCKT condiodeHvPsub pin0 pin1
.ENDS
***************************************
.SUBCKT sky130_fd_pr__nfet_g5v0d16v0 pin0 pin1 pin2 pin3
.ENDS
***************************************
.SUBCKT sky130_fd_pr__nfet_20v0 pin0 pin1 pin2 pin3
.ENDS
***************************************
.SUBCKT sky130_fd_pr__nfet_20v0_nvt pin0 pin1 pin2 pin3
.ENDS
***************************************
.SUBCKT sky130_fd_pr__nfet_20v0_iso pin0 pin1 pin2 pin3 pin4
.ENDS
***************************************
.SUBCKT sky130_fd_pr__nfet_20v0_nvt_iso pin0 pin1 pin2 pin3 pin4
.ENDS
***************************************
.SUBCKT sky130_fd_pr__pfet_g5v0d16v0 pin0 pin1 pin2 pin3
.ENDS
***************************************
.SUBCKT sky130_fd_pr__pfet_20v0 pin0 pin1 pin2 pin3
.ENDS
***************************************
.SUBCKT sky130_fd_pr__cap_var_lvt pin0 pin1 pin2
.ENDS
***************************************
.SUBCKT sky130_fd_pr__cap_var_hvt pin0 pin1 pin2
.ENDS
***************************************
.SUBCKT sky130_fd_pr__cap_var pin0 pin1 pin2
.ENDS
***************************************
.SUBCKT Dpar d0 d1
.ENDS
***************************************
.SUBCKT sky130_fd_pr__cap_vpp_08p6x07p8_l1m1m2_noshield_o1 pin0 pin1 pin2
.ENDS
***************************************
.SUBCKT sky130_fd_pr__cap_vpp_04p4x04p6_l1m1m2_noshield_o1 pin0 pin1 pin2
.ENDS
***************************************
.SUBCKT sky130_fd_pr__cap_vpp_04p4x04p6_m1m2_noshield_o1nhv pin0 pin1 pin2
.ENDS
***************************************
.SUBCKT sky130_fd_pr__cap_vpp_04p4x04p6_m1m2_noshield_o1phv pin0 pin1 pin2
.ENDS
***************************************
.SUBCKT sky130_fd_pr__cap_vpp_02p9x06p1_m1m2m3m4_shieldl1_fingercap2 pin0 pin1 pin2
.ENDS
***************************************
.SUBCKT sky130_fd_pr__cap_vpp_05p9x05p9_m1m2m3m4_shieldl1_wafflecap pin0 pin1 pin2
.ENDS
***************************************
.SUBCKT sky130_fd_pr__cap_vpp_11p3x11p3_m1m2m3m4_shieldl1_wafflecap pin0 pin1 pin2
.ENDS
***************************************
.SUBCKT sky130_fd_pr__cap_vpp_02p7x41p1_m1m2m3m4_shieldl1_fingercap pin0 pin1 pin2
.ENDS
***************************************
.SUBCKT sky130_fd_pr__cap_vpp_02p7x21p1_m1m2m3m4_shieldl1_fingercap pin0 pin1 pin2
.ENDS
***************************************
.SUBCKT sky130_fd_pr__cap_vpp_02p7x11p1_m1m2m3m4_shieldl1_fingercap pin0 pin1 pin2
.ENDS
***************************************
.SUBCKT sky130_fd_pr__cap_vpp_02p7x06p1_m1m2m3m4_shieldl1_fingercap pin0 pin1 pin2
.ENDS
***************************************
.SUBCKT sky130_fd_pr__cap_vpp_55p8x23p1_pol1m1m2m3m4m5_noshield_m5pullin pin0 pin1 pin2
.ENDS
***************************************
.SUBCKT sky130_fd_pr__cap_vpp_55p8x23p1_pol1m1m2m3m4m5_noshield pin0 pin1 pin2
.ENDS
***************************************
.SUBCKT sky130_fd_pr__cap_vpp_55p8x11p7_pol1m1m2m3m4m5_noshield_m5pullin pin0 pin1 pin2
.ENDS
***************************************
.SUBCKT sky130_fd_pr__cap_vpp_55p8x11p7_pol1m1m2m3m4m5_noshield pin0 pin1 pin2
.ENDS
***************************************
.SUBCKT sky130_fd_pr__cap_vpp_44p7x23p1_pol1m1m2m3m4m5_noshield pin0 pin1 pin2
.ENDS
***************************************
.SUBCKT sky130_fd_pr__cap_vpp_44p7x11p7_pol1m1m2m3m4m5_noshield pin0 pin1 pin2
.ENDS
***************************************
.SUBCKT sky130_fd_pr__cap_vpp_33p6x23p1_pol1m1m2m3m4m5_noshield pin0 pin1 pin2
.ENDS
***************************************
.SUBCKT sky130_fd_pr__cap_vpp_33p6x11p7_pol1m1m2m3m4m5_noshield pin0 pin1 pin2
.ENDS
***************************************
.SUBCKT sky130_fd_pr__cap_vpp_22p5x23p1_pol1m1m2m3m4m5_noshield pin0 pin1 pin2
.ENDS
***************************************
.SUBCKT sky130_fd_pr__cap_vpp_22p5x11p7_pol1m1m2m3m4m5_noshield pin0 pin1 pin2
.ENDS
***************************************
.SUBCKT sky130_fd_pr__cap_vpp_11p5x23p1_pol1m1m2m3m4m5_noshield pin0 pin1 pin2
.ENDS
***************************************
.SUBCKT sky130_fd_pr__cap_vpp_11p5x11p7_pol1m1m2m3m4m5_noshield pin0 pin1 pin2
.ENDS
***************************************
.SUBCKT sky130_fd_pr__cap_vpp_11p3x11p8_l1m1m2m3m4_shieldm5_nhv pin0 pin1 pin2 pin3
.ENDS
***************************************
.SUBCKT sky130_fd_pr__cap_vpp_11p5x11p7_l1m1m2m3m4_shieldpom5_x pin0 pin1 pin2 pin3
.ENDS
***************************************
.SUBCKT sky130_fd_pr__cap_vpp_04p4x04p6_m1m2m3_shieldl1m5_floatm4 pin0 pin1 pin2 pin3
.ENDS
***************************************
.SUBCKT sky130_fd_pr__cap_vpp_11p5x11p7_m1m2m3_shieldl1m5_floatm4 pin0 pin1 pin2 pin3
.ENDS
***************************************
.SUBCKT sky130_fd_pr__cap_vpp_08p6x07p8_m1m2m3_shieldl1m5_floatm4 pin0 pin1 pin2 pin3
.ENDS
***************************************
.SUBCKT sky130_fd_pr__cap_vpp_11p5x11p7_m1m2m3m4_shieldl1m5 pin0 pin1 pin2 pin3
.ENDS
***************************************
.SUBCKT sky130_fd_pr__cap_vpp_11p5x11p7_l1m1m2m3m4_shieldpom5 pin0 pin1 pin2 pin3
.ENDS
***************************************
.SUBCKT sky130_fd_pr__cap_vpp_11p5x11p7_l1m1m2m3m4_shieldm5 pin0 pin1 pin2 pin3
.ENDS
***************************************
.SUBCKT sky130_fd_pr__cap_vpp_06p8x06p1_m1m2m3_shieldl1m4 pin0 pin1 pin2 pin3
.ENDS
***************************************
.SUBCKT sky130_fd_pr__cap_vpp_06p8x06p1_l1m1m2m3_shieldpom4 pin0 pin1 pin2 pin3
.ENDS
***************************************
.SUBCKT sky130_fd_pr__cap_vpp_11p5x11p7_l1m1m2m3_shieldpom4 pin0 pin1 pin2 pin3
.ENDS
***************************************
.SUBCKT sky130_fd_pr__cap_vpp_11p5x11p7_l1m1m2m3_shieldm4 pin0 pin1 pin2 pin3
.ENDS
***************************************
.SUBCKT sky130_fd_pr__cap_vpp_01p8x01p8_m1m2_noshield pin0 pin1 pin2
.ENDS
***************************************
.SUBCKT sky130_fd_pr__cap_vpp_04p4x04p6_m1m2m3_shieldl1 pin0 pin1 pin2
.ENDS
***************************************
.SUBCKT sky130_fd_pr__cap_vpp_08p6x07p8_m1m2m3_shieldl1 pin0 pin1 pin2
.ENDS
***************************************
.SUBCKT sky130_fd_pr__cap_vpp_11p5x11p7_m1m2m3_shieldl1 pin0 pin1 pin2
.ENDS
***************************************
.SUBCKT sky130_fd_pr__cap_vpp_11p5x11p7_l1m1m2_shieldpom3 c0 c1 b term4
.ENDS
***************************************
.SUBCKT sky130_fd_pr__cap_vpp_08p6x07p8_l1m1m2_shieldpo_floatm3 c0 c1 b term4
.ENDS
***************************************
.SUBCKT sky130_fd_pr__cap_vpp_04p4x04p6_l1m1m2_shieldpo_floatm3 c0 c1 b term4
.ENDS
***************************************
.SUBCKT sky130_fd_pr__cap_vpp_03p9x03p9_m1m2_shieldl1_floatm3 c0 c1 b term4
.ENDS
***************************************
.SUBCKT sky130_fd_pr__cap_vpp_11p5x11p7_m1m2m3m4_shieldm5 pin0 pin1 pin2 pin3
.ENDS
***************************************
.SUBCKT sky130_fd_pr__cap_vpp_11p5x11p7_m1m4_noshield pin0 pin1 pin2
.ENDS
***************************************
.SUBCKT sky130_fd_pr__cap_vpp_11p5x11p7_m1m2_noshield pin0 pin1 pin2
.ENDS
***************************************
.SUBCKT sky130_fd_pr__cap_vpp_04p4x04p6_m1m2_noshield pin0 pin1 pin2
.ENDS
***************************************
.SUBCKT sky130_fd_pr__cap_vpp_02p4x04p6_m1m2_noshield pin0 pin1 pin2
.ENDS
***************************************
.SUBCKT sky130_fd_pr__cap_vpp_04p4x04p6_m1m2_noshield_o2 pin0 pin1 pin2
.ENDS
***************************************
.SUBCKT sky130_fd_pr__cap_vpp_08p6x07p8_m1m2_noshield pin0 pin1 pin2
.ENDS
***************************************
.SUBCKT balun pin0 pin1 pin2 pin3 pin4 pin5
.ENDS
***************************************
.SUBCKT sky130_fd_pr__ind_04 pin0 pin1 pin2 pin3
.ENDS
***************************************
.SUBCKT sky130_fd_pr__res_high_po_0p35 POS NEG SUB
.ENDS
***************************************
.SUBCKT sky130_fd_pr__res_xhigh_po_0p35 POS NEG SUB
.ENDS
***************************************
.SUBCKT sky130_fd_pr__res_high_po_0p69 POS NEG SUB
.ENDS
***************************************
.SUBCKT sky130_fd_pr__res_xhigh_po_0p69 POS NEG SUB
.ENDS
***************************************
.SUBCKT sky130_fd_pr__res_high_po_1p41 POS NEG SUB
.ENDS
***************************************
.SUBCKT sky130_fd_pr__res_xhigh_po_1p41 POS NEG SUB
.ENDS
***************************************
.SUBCKT sky130_fd_pr__res_high_po_2p85 POS NEG SUB
.ENDS
***************************************
.SUBCKT sky130_fd_pr__res_xhigh_po_2p85 POS NEG SUB
.ENDS
***************************************
.SUBCKT sky130_fd_pr__res_high_po_5p73 POS NEG SUB
.ENDS
***************************************
.SUBCKT sky130_fd_pr__res_xhigh_po_5p73 POS NEG SUB
.ENDS
***************************************
.SUBCKT Probe probe conductor
.ENDS
***************************************
.SUBCKT sky130_fd_pr__dfl1sd__example_55959141808678
**
.ENDS
***************************************
.SUBCKT sky130_fd_pr__hvdftpl1s__example_55959141808675
**
*.SEEDPROM
.ENDS
***************************************
.SUBCKT sky130_fd_pr__dfl1sd2__example_55959141808679
**
.ENDS
***************************************
.SUBCKT ICV_1
**
.ENDS
***************************************
.SUBCKT sky130_fd_pr__dfl1__example_55959141808662
**
*.SEEDPROM
.ENDS
***************************************
.SUBCKT sky130_fd_pr__dfl1__example_55959141808663
**
*.SEEDPROM
.ENDS
***************************************
.SUBCKT sky130_fd_pr__hvdfl1sd__example_5595914180851
**
*.SEEDPROM
.ENDS
***************************************
.SUBCKT sky130_fd_pr__model__nfet_highvoltage__example_55959141808664 2 3
**
*.SEEDPROM
XM0 2 3 2 2 sky130_fd_pr__nfet_g5v0d10v5 L=4 W=5 AD=1.325 AS=1.325 PD=10.53 PS=10.53 NRD=0 NRS=0 m=1 sa=2e+06 sb=2e+06
.ENDS
***************************************
.SUBCKT sky130_fd_io__sio_clamp_pcap_4x5 2 3
**
*.SEEDPROM
X0 2 3 sky130_fd_pr__model__nfet_highvoltage__example_55959141808664
.ENDS
***************************************
.SUBCKT sky130_fd_pr__hvdftpl1s2__example_55959141808676
**
*.SEEDPROM
.ENDS
***************************************
.SUBCKT sky130_fd_io__esd_rcclamp_nfetcap 2 3
**
*.SEEDPROM
XM0 2 3 2 2 sky130_fd_pr__nfet_g5v0d10v5 L=8 W=5 AD=1.325 AS=1.325 PD=10.53 PS=10.53 NRD=0 NRS=0 m=1 sa=4e+06 sb=4e+06
.ENDS
***************************************
.SUBCKT ICV_2 2 3
**
*.SEEDPROM
X0 2 3 sky130_fd_io__esd_rcclamp_nfetcap
X1 2 3 sky130_fd_io__esd_rcclamp_nfetcap
.ENDS
***************************************
.SUBCKT sky130_fd_pr__hvdftpl1s__example_55959141808671
**
*.SEEDPROM
.ENDS
***************************************
.SUBCKT sky130_fd_pr__hvdftpl1s2__example_55959141808672
**
*.SEEDPROM
.ENDS
***************************************
.SUBCKT sky130_fd_pr__nfet_01v8__example_55959141808670
**
*.SEEDPROM
.ENDS
***************************************
.SUBCKT sky130_fd_pr__nfet_01v8__example_55959141808673
**
*.SEEDPROM
.ENDS
***************************************
.SUBCKT sky130_fd_pr__dfl1sd__example_55959141808336
**
*.SEEDPROM
.ENDS
***************************************
.SUBCKT sky130_fd_pr__dfl1sd2__example_55959141808666
**
*.SEEDPROM
.ENDS
***************************************
.SUBCKT ICV_3
**
*.SEEDPROM
.ENDS
***************************************
.SUBCKT ICV_4
**
*.SEEDPROM
.ENDS
***************************************
.SUBCKT ICV_5
**
*.SEEDPROM
.ENDS
***************************************
.SUBCKT ICV_6
**
*.SEEDPROM
.ENDS
***************************************
.SUBCKT sky130_fd_pr__pfet_01v8__example_55959141808665 2 3 4
**
*.SEEDPROM
XM0 4 3 2 2 sky130_fd_pr__pfet_g5v0d10v5 L=0.5 W=7 AD=0.98 AS=1.855 PD=7.28 PS=14.53 NRD=0 NRS=0 m=1 sa=250000 sb=250020
XM1 2 3 4 2 sky130_fd_pr__pfet_g5v0d10v5 L=0.5 W=7 AD=0.98 AS=0.98 PD=7.28 PS=7.28 NRD=0 NRS=0 m=1 sa=250001 sb=250020
XM2 4 3 2 2 sky130_fd_pr__pfet_g5v0d10v5 L=0.5 W=7 AD=0.98 AS=0.98 PD=7.28 PS=7.28 NRD=0 NRS=0 m=1 sa=250002 sb=250020
XM3 2 3 4 2 sky130_fd_pr__pfet_g5v0d10v5 L=0.5 W=7 AD=0.98 AS=0.98 PD=7.28 PS=7.28 NRD=0 NRS=0 m=1 sa=250002 sb=250020
XM4 4 3 2 2 sky130_fd_pr__pfet_g5v0d10v5 L=0.5 W=7 AD=0.98 AS=0.98 PD=7.28 PS=7.28 NRD=0 NRS=0 m=1 sa=250003 sb=250020
XM5 2 3 4 2 sky130_fd_pr__pfet_g5v0d10v5 L=0.5 W=7 AD=0.98 AS=0.98 PD=7.28 PS=7.28 NRD=0 NRS=0 m=1 sa=250004 sb=250020
XM6 4 3 2 2 sky130_fd_pr__pfet_g5v0d10v5 L=0.5 W=7 AD=0.98 AS=0.98 PD=7.28 PS=7.28 NRD=0 NRS=0 m=1 sa=250005 sb=250020
XM7 2 3 4 2 sky130_fd_pr__pfet_g5v0d10v5 L=0.5 W=7 AD=0.98 AS=0.98 PD=7.28 PS=7.28 NRD=0 NRS=0 m=1 sa=250005 sb=250020
XM8 4 3 2 2 sky130_fd_pr__pfet_g5v0d10v5 L=0.5 W=7 AD=0.98 AS=0.98 PD=7.28 PS=7.28 NRD=0 NRS=0 m=1 sa=250006 sb=250020
XM9 2 3 4 2 sky130_fd_pr__pfet_g5v0d10v5 L=0.5 W=7 AD=0.98 AS=0.98 PD=7.28 PS=7.28 NRD=0 NRS=0 m=1 sa=250007 sb=250020
XM10 4 3 2 2 sky130_fd_pr__pfet_g5v0d10v5 L=0.5 W=7 AD=0.98 AS=0.98 PD=7.28 PS=7.28 NRD=0 NRS=0 m=1 sa=250008 sb=250020
XM11 2 3 4 2 sky130_fd_pr__pfet_g5v0d10v5 L=0.5 W=7 AD=0.98 AS=0.98 PD=7.28 PS=7.28 NRD=0 NRS=0 m=1 sa=250009 sb=250020
XM12 4 3 2 2 sky130_fd_pr__pfet_g5v0d10v5 L=0.5 W=7 AD=0.98 AS=0.98 PD=7.28 PS=7.28 NRD=0 NRS=0 m=1 sa=250009 sb=250020
XM13 2 3 4 2 sky130_fd_pr__pfet_g5v0d10v5 L=0.5 W=7 AD=0.98 AS=0.98 PD=7.28 PS=7.28 NRD=0 NRS=0 m=1 sa=250010 sb=250020
XM14 4 3 2 2 sky130_fd_pr__pfet_g5v0d10v5 L=0.5 W=7 AD=0.98 AS=0.98 PD=7.28 PS=7.28 NRD=0 NRS=0 m=1 sa=250011 sb=250020
XM15 2 3 4 2 sky130_fd_pr__pfet_g5v0d10v5 L=0.5 W=7 AD=0.98 AS=0.98 PD=7.28 PS=7.28 NRD=0 NRS=0 m=1 sa=250012 sb=250020
XM16 4 3 2 2 sky130_fd_pr__pfet_g5v0d10v5 L=0.5 W=7 AD=0.98 AS=0.98 PD=7.28 PS=7.28 NRD=0 NRS=0 m=1 sa=250012 sb=250020
XM17 2 3 4 2 sky130_fd_pr__pfet_g5v0d10v5 L=0.5 W=7 AD=0.98 AS=0.98 PD=7.28 PS=7.28 NRD=0 NRS=0 m=1 sa=250013 sb=250020
XM18 4 3 2 2 sky130_fd_pr__pfet_g5v0d10v5 L=0.5 W=7 AD=0.98 AS=0.98 PD=7.28 PS=7.28 NRD=0 NRS=0 m=1 sa=250014 sb=250020
XM19 2 3 4 2 sky130_fd_pr__pfet_g5v0d10v5 L=0.5 W=7 AD=0.98 AS=0.98 PD=7.28 PS=7.28 NRD=0 NRS=0 m=1 sa=250015 sb=250020
XM20 4 3 2 2 sky130_fd_pr__pfet_g5v0d10v5 L=0.5 W=7 AD=0.98 AS=0.98 PD=7.28 PS=7.28 NRD=0 NRS=0 m=1 sa=250016 sb=250020
XM21 2 3 4 2 sky130_fd_pr__pfet_g5v0d10v5 L=0.5 W=7 AD=0.98 AS=0.98 PD=7.28 PS=7.28 NRD=0 NRS=0 m=1 sa=250016 sb=250020
XM22 4 3 2 2 sky130_fd_pr__pfet_g5v0d10v5 L=0.5 W=7 AD=0.98 AS=0.98 PD=7.28 PS=7.28 NRD=0 NRS=0 m=1 sa=250017 sb=250020
XM23 2 3 4 2 sky130_fd_pr__pfet_g5v0d10v5 L=0.5 W=7 AD=0.98 AS=0.98 PD=7.28 PS=7.28 NRD=0 NRS=0 m=1 sa=250018 sb=250020
XM24 4 3 2 2 sky130_fd_pr__pfet_g5v0d10v5 L=0.5 W=7 AD=0.98 AS=0.98 PD=7.28 PS=7.28 NRD=0 NRS=0 m=1 sa=250019 sb=250020
XM25 2 3 4 2 sky130_fd_pr__pfet_g5v0d10v5 L=0.5 W=7 AD=0.98 AS=0.98 PD=7.28 PS=7.28 NRD=0 NRS=0 m=1 sa=250020 sb=250019
XM26 4 3 2 2 sky130_fd_pr__pfet_g5v0d10v5 L=0.5 W=7 AD=0.98 AS=0.98 PD=7.28 PS=7.28 NRD=0 NRS=0 m=1 sa=250020 sb=250018
XM27 2 3 4 2 sky130_fd_pr__pfet_g5v0d10v5 L=0.5 W=7 AD=0.98 AS=0.98 PD=7.28 PS=7.28 NRD=0 NRS=0 m=1 sa=250020 sb=250017
XM28 4 3 2 2 sky130_fd_pr__pfet_g5v0d10v5 L=0.5 W=7 AD=0.98 AS=0.98 PD=7.28 PS=7.28 NRD=0 NRS=0 m=1 sa=250020 sb=250016
XM29 2 3 4 2 sky130_fd_pr__pfet_g5v0d10v5 L=0.5 W=7 AD=0.98 AS=0.98 PD=7.28 PS=7.28 NRD=0 NRS=0 m=1 sa=250020 sb=250016
XM30 4 3 2 2 sky130_fd_pr__pfet_g5v0d10v5 L=0.5 W=7 AD=0.98 AS=0.98 PD=7.28 PS=7.28 NRD=0 NRS=0 m=1 sa=250020 sb=250015
XM31 2 3 4 2 sky130_fd_pr__pfet_g5v0d10v5 L=0.5 W=7 AD=0.98 AS=0.98 PD=7.28 PS=7.28 NRD=0 NRS=0 m=1 sa=250020 sb=250014
XM32 4 3 2 2 sky130_fd_pr__pfet_g5v0d10v5 L=0.5 W=7 AD=0.98 AS=0.98 PD=7.28 PS=7.28 NRD=0 NRS=0 m=1 sa=250020 sb=250013
XM33 2 3 4 2 sky130_fd_pr__pfet_g5v0d10v5 L=0.5 W=7 AD=0.98 AS=0.98 PD=7.28 PS=7.28 NRD=0 NRS=0 m=1 sa=250020 sb=250012
XM34 4 3 2 2 sky130_fd_pr__pfet_g5v0d10v5 L=0.5 W=7 AD=0.98 AS=0.98 PD=7.28 PS=7.28 NRD=0 NRS=0 m=1 sa=250020 sb=250012
XM35 2 3 4 2 sky130_fd_pr__pfet_g5v0d10v5 L=0.5 W=7 AD=0.98 AS=0.98 PD=7.28 PS=7.28 NRD=0 NRS=0 m=1 sa=250020 sb=250011
XM36 4 3 2 2 sky130_fd_pr__pfet_g5v0d10v5 L=0.5 W=7 AD=0.98 AS=0.98 PD=7.28 PS=7.28 NRD=0 NRS=0 m=1 sa=250020 sb=250010
XM37 2 3 4 2 sky130_fd_pr__pfet_g5v0d10v5 L=0.5 W=7 AD=0.98 AS=0.98 PD=7.28 PS=7.28 NRD=0 NRS=0 m=1 sa=250020 sb=250009
XM38 4 3 2 2 sky130_fd_pr__pfet_g5v0d10v5 L=0.5 W=7 AD=0.98 AS=0.98 PD=7.28 PS=7.28 NRD=0 NRS=0 m=1 sa=250020 sb=250009
XM39 2 3 4 2 sky130_fd_pr__pfet_g5v0d10v5 L=0.5 W=7 AD=0.98 AS=0.98 PD=7.28 PS=7.28 NRD=0 NRS=0 m=1 sa=250020 sb=250008
XM40 4 3 2 2 sky130_fd_pr__pfet_g5v0d10v5 L=0.5 W=7 AD=0.98 AS=0.98 PD=7.28 PS=7.28 NRD=0 NRS=0 m=1 sa=250020 sb=250007
XM41 2 3 4 2 sky130_fd_pr__pfet_g5v0d10v5 L=0.5 W=7 AD=0.98 AS=0.98 PD=7.28 PS=7.28 NRD=0 NRS=0 m=1 sa=250020 sb=250006
XM42 4 3 2 2 sky130_fd_pr__pfet_g5v0d10v5 L=0.5 W=7 AD=0.98 AS=0.98 PD=7.28 PS=7.28 NRD=0 NRS=0 m=1 sa=250020 sb=250005
XM43 2 3 4 2 sky130_fd_pr__pfet_g5v0d10v5 L=0.5 W=7 AD=0.98 AS=0.98 PD=7.28 PS=7.28 NRD=0 NRS=0 m=1 sa=250020 sb=250005
XM44 4 3 2 2 sky130_fd_pr__pfet_g5v0d10v5 L=0.5 W=7 AD=0.98 AS=0.98 PD=7.28 PS=7.28 NRD=0 NRS=0 m=1 sa=250020 sb=250004
XM45 2 3 4 2 sky130_fd_pr__pfet_g5v0d10v5 L=0.5 W=7 AD=0.98 AS=0.98 PD=7.28 PS=7.28 NRD=0 NRS=0 m=1 sa=250020 sb=250003
XM46 4 3 2 2 sky130_fd_pr__pfet_g5v0d10v5 L=0.5 W=7 AD=0.98 AS=0.98 PD=7.28 PS=7.28 NRD=0 NRS=0 m=1 sa=250020 sb=250002
XM47 2 3 4 2 sky130_fd_pr__pfet_g5v0d10v5 L=0.5 W=7 AD=0.98 AS=0.98 PD=7.28 PS=7.28 NRD=0 NRS=0 m=1 sa=250020 sb=250002
XM48 4 3 2 2 sky130_fd_pr__pfet_g5v0d10v5 L=0.5 W=7 AD=0.98 AS=0.98 PD=7.28 PS=7.28 NRD=0 NRS=0 m=1 sa=250020 sb=250001
XM49 2 3 4 2 sky130_fd_pr__pfet_g5v0d10v5 L=0.5 W=7 AD=1.855 AS=0.98 PD=14.53 PS=7.28 NRD=0 NRS=0 m=1 sa=250020 sb=250000
.ENDS
***************************************
.SUBCKT sky130_ef_io__vdda_hvc_clamped_pad VSSD VSSA VDDA VDDIO VCCHIB VCCD VSSIO VSWITCH AMUXBUS_B AMUXBUS_A VSSIO_Q VDDIO_Q
**
XM0 VDDA 8 VSSA VSSA sky130_fd_pr__nfet_g5v0d10v5 L=0.5 W=20 AD=15.1 AS=13.9 PD=21.51 PS=41.39 NRD=2.5308 NRS=2.2458 m=1 sa=250001 sb=250020
XM1 VDDA 8 VSSA VSSA sky130_fd_pr__nfet_g5v0d10v5 L=0.5 W=20 AD=15.1 AS=13.9 PD=21.51 PS=41.39 NRD=2.5308 NRS=2.2458 m=1 sa=250001 sb=250020
XM2 VDDA 8 VSSA VSSA sky130_fd_pr__nfet_g5v0d10v5 L=0.5 W=20 AD=15.1 AS=13.9 PD=21.51 PS=41.39 NRD=2.5308 NRS=2.2458 m=1 sa=250001 sb=250020
XM3 VDDA 8 VSSA VSSA sky130_fd_pr__nfet_g5v0d10v5 L=0.5 W=10 AD=7.55 AS=6.95 PD=11.51 PS=21.39 NRD=5.073 NRS=4.503 m=1 sa=250001 sb=250020
XM4 VSSA 8 VDDA VSSA sky130_fd_pr__nfet_g5v0d10v5 L=0.5 W=20 AD=13.9 AS=15.1 PD=41.39 PS=21.51 NRD=2.2458 NRS=2.5308 m=1 sa=250003 sb=250020
XM5 VSSA 8 VDDA VSSA sky130_fd_pr__nfet_g5v0d10v5 L=0.5 W=20 AD=13.9 AS=15.1 PD=41.39 PS=21.51 NRD=2.2458 NRS=2.5308 m=1 sa=250003 sb=250020
XM6 VSSA 8 VDDA VSSA sky130_fd_pr__nfet_g5v0d10v5 L=0.5 W=20 AD=13.9 AS=15.1 PD=41.39 PS=21.51 NRD=2.2458 NRS=2.5308 m=1 sa=250003 sb=250020
XM7 VSSA 8 VDDA VSSA sky130_fd_pr__nfet_g5v0d10v5 L=0.5 W=10 AD=6.95 AS=7.55 PD=21.39 PS=11.51 NRD=4.503 NRS=5.073 m=1 sa=250003 sb=250020
XM8 VDDA 8 VSSA VSSA sky130_fd_pr__nfet_g5v0d10v5 L=0.5 W=20 AD=15.1 AS=13.9 PD=21.51 PS=41.39 NRD=2.5308 NRS=2.2458 m=1 sa=250006 sb=250020
XM9 VDDA 8 VSSA VSSA sky130_fd_pr__nfet_g5v0d10v5 L=0.5 W=20 AD=15.1 AS=13.9 PD=21.51 PS=41.39 NRD=2.5308 NRS=2.2458 m=1 sa=250006 sb=250020
XM10 VDDA 8 VSSA VSSA sky130_fd_pr__nfet_g5v0d10v5 L=0.5 W=20 AD=15.1 AS=13.9 PD=21.51 PS=41.39 NRD=2.5308 NRS=2.2458 m=1 sa=250006 sb=250020
XM11 VDDA 8 VSSA VSSA sky130_fd_pr__nfet_g5v0d10v5 L=0.5 W=10 AD=7.55 AS=6.95 PD=11.51 PS=21.39 NRD=5.073 NRS=4.503 m=1 sa=250006 sb=250020
XM12 VSSA 8 VDDA VSSA sky130_fd_pr__nfet_g5v0d10v5 L=0.5 W=20 AD=13.9 AS=15.1 PD=41.39 PS=21.51 NRD=2.2458 NRS=2.5308 m=1 sa=250008 sb=250020
XM13 VSSA 8 VDDA VSSA sky130_fd_pr__nfet_g5v0d10v5 L=0.5 W=20 AD=13.9 AS=15.1 PD=41.39 PS=21.51 NRD=2.2458 NRS=2.5308 m=1 sa=250008 sb=250020
XM14 VSSA 8 VDDA VSSA sky130_fd_pr__nfet_g5v0d10v5 L=0.5 W=20 AD=13.9 AS=15.1 PD=41.39 PS=21.51 NRD=2.2458 NRS=2.5308 m=1 sa=250008 sb=250020
XM15 VSSA 8 VDDA VSSA sky130_fd_pr__nfet_g5v0d10v5 L=0.5 W=10 AD=6.95 AS=7.55 PD=21.39 PS=11.51 NRD=4.503 NRS=5.073 m=1 sa=250008 sb=250020
XM16 VDDA 8 VSSA VSSA sky130_fd_pr__nfet_g5v0d10v5 L=0.5 W=20 AD=15.1 AS=13.9 PD=21.51 PS=41.39 NRD=2.5308 NRS=2.2458 m=1 sa=250010 sb=250020
XM17 VDDA 8 VSSA VSSA sky130_fd_pr__nfet_g5v0d10v5 L=0.5 W=20 AD=15.1 AS=13.9 PD=21.51 PS=41.39 NRD=2.5308 NRS=2.2458 m=1 sa=250001 sb=250020
XM18 VDDA 8 VSSA VSSA sky130_fd_pr__nfet_g5v0d10v5 L=0.5 W=20 AD=15.1 AS=13.9 PD=21.51 PS=41.39 NRD=2.5308 NRS=2.2458 m=1 sa=250001 sb=250020
XM19 VDDA 8 VSSA VSSA sky130_fd_pr__nfet_g5v0d10v5 L=0.5 W=20 AD=15.1 AS=13.9 PD=21.51 PS=41.39 NRD=2.5308 NRS=2.2458 m=1 sa=250001 sb=250020
XM20 VDDA 8 VSSA VSSA sky130_fd_pr__nfet_g5v0d10v5 L=0.5 W=20 AD=15.1 AS=13.9 PD=21.51 PS=41.39 NRD=2.5308 NRS=2.2458 m=1 sa=250010 sb=250020
XM21 VDDA 8 VSSA VSSA sky130_fd_pr__nfet_g5v0d10v5 L=0.5 W=20 AD=15.1 AS=13.9 PD=21.51 PS=41.39 NRD=2.5308 NRS=2.2458 m=1 sa=250010 sb=250020
XM22 VDDA 8 VSSA VSSA sky130_fd_pr__nfet_g5v0d10v5 L=0.5 W=10 AD=7.55 AS=6.95 PD=11.51 PS=21.39 NRD=5.073 NRS=4.503 m=1 sa=250010 sb=250020
XM23 VSSA 8 VDDA VSSA sky130_fd_pr__nfet_g5v0d10v5 L=0.5 W=20 AD=13.9 AS=15.1 PD=41.39 PS=21.51 NRD=2.2458 NRS=2.5308 m=1 sa=250012 sb=250020
XM24 VSSA 8 VDDA VSSA sky130_fd_pr__nfet_g5v0d10v5 L=0.5 W=20 AD=13.9 AS=15.1 PD=41.39 PS=21.51 NRD=2.2458 NRS=2.5308 m=1 sa=250003 sb=250020
XM25 VSSA 8 VDDA VSSA sky130_fd_pr__nfet_g5v0d10v5 L=0.5 W=20 AD=13.9 AS=15.1 PD=41.39 PS=21.51 NRD=2.2458 NRS=2.5308 m=1 sa=250003 sb=250020
XM26 VSSA 8 VDDA VSSA sky130_fd_pr__nfet_g5v0d10v5 L=0.5 W=20 AD=13.9 AS=15.1 PD=41.39 PS=21.51 NRD=2.2458 NRS=2.5308 m=1 sa=250003 sb=250020
XM27 VSSA 8 VDDA VSSA sky130_fd_pr__nfet_g5v0d10v5 L=0.5 W=20 AD=13.9 AS=15.1 PD=41.39 PS=21.51 NRD=2.2458 NRS=2.5308 m=1 sa=250012 sb=250020
XM28 VSSA 8 VDDA VSSA sky130_fd_pr__nfet_g5v0d10v5 L=0.5 W=20 AD=13.9 AS=15.1 PD=41.39 PS=21.51 NRD=2.2458 NRS=2.5308 m=1 sa=250012 sb=250020
XM29 VSSA 8 VDDA VSSA sky130_fd_pr__nfet_g5v0d10v5 L=0.5 W=10 AD=6.95 AS=7.55 PD=21.39 PS=11.51 NRD=4.503 NRS=5.073 m=1 sa=250012 sb=250020
XM30 VDDA 8 VSSA VSSA sky130_fd_pr__nfet_g5v0d10v5 L=0.5 W=20 AD=15.1 AS=13.9 PD=21.51 PS=41.39 NRD=2.5308 NRS=2.2458 m=1 sa=250015 sb=250020
XM31 VDDA 8 VSSA VSSA sky130_fd_pr__nfet_g5v0d10v5 L=0.5 W=20 AD=15.1 AS=13.9 PD=21.51 PS=41.39 NRD=2.5308 NRS=2.2458 m=1 sa=250006 sb=250020
XM32 VDDA 8 VSSA VSSA sky130_fd_pr__nfet_g5v0d10v5 L=0.5 W=20 AD=15.1 AS=13.9 PD=21.51 PS=41.39 NRD=2.5308 NRS=2.2458 m=1 sa=250006 sb=250020
XM33 VDDA 8 VSSA VSSA sky130_fd_pr__nfet_g5v0d10v5 L=0.5 W=20 AD=15.1 AS=13.9 PD=21.51 PS=41.39 NRD=2.5308 NRS=2.2458 m=1 sa=250006 sb=250020
XM34 VDDA 8 VSSA VSSA sky130_fd_pr__nfet_g5v0d10v5 L=0.5 W=20 AD=15.1 AS=13.9 PD=21.51 PS=41.39 NRD=2.5308 NRS=2.2458 m=1 sa=250015 sb=250020
XM35 VDDA 8 VSSA VSSA sky130_fd_pr__nfet_g5v0d10v5 L=0.5 W=20 AD=15.1 AS=13.9 PD=21.51 PS=41.39 NRD=2.5308 NRS=2.2458 m=1 sa=250015 sb=250020
XM36 VDDA 8 VSSA VSSA sky130_fd_pr__nfet_g5v0d10v5 L=0.5 W=10 AD=7.55 AS=6.95 PD=11.51 PS=21.39 NRD=5.073 NRS=4.503 m=1 sa=250015 sb=250020
XM37 VSSA 8 VDDA VSSA sky130_fd_pr__nfet_g5v0d10v5 L=0.5 W=20 AD=13.9 AS=15.1 PD=41.39 PS=21.51 NRD=2.2458 NRS=2.5308 m=1 sa=250017 sb=250020
XM38 VSSA 8 VDDA VSSA sky130_fd_pr__nfet_g5v0d10v5 L=0.5 W=20 AD=13.9 AS=15.1 PD=41.39 PS=21.51 NRD=2.2458 NRS=2.5308 m=1 sa=250008 sb=250020
XM39 VSSA 8 VDDA VSSA sky130_fd_pr__nfet_g5v0d10v5 L=0.5 W=20 AD=13.9 AS=15.1 PD=41.39 PS=21.51 NRD=2.2458 NRS=2.5308 m=1 sa=250008 sb=250020
XM40 VSSA 8 VDDA VSSA sky130_fd_pr__nfet_g5v0d10v5 L=0.5 W=20 AD=13.9 AS=15.1 PD=41.39 PS=21.51 NRD=2.2458 NRS=2.5308 m=1 sa=250008 sb=250020
XM41 VSSA 8 VDDA VSSA sky130_fd_pr__nfet_g5v0d10v5 L=0.5 W=20 AD=13.9 AS=15.1 PD=41.39 PS=21.51 NRD=2.2458 NRS=2.5308 m=1 sa=250017 sb=250020
XM42 VSSA 8 VDDA VSSA sky130_fd_pr__nfet_g5v0d10v5 L=0.5 W=20 AD=13.9 AS=15.1 PD=41.39 PS=21.51 NRD=2.2458 NRS=2.5308 m=1 sa=250017 sb=250020
XM43 VSSA 8 VDDA VSSA sky130_fd_pr__nfet_g5v0d10v5 L=0.5 W=10 AD=6.95 AS=7.55 PD=21.39 PS=11.51 NRD=4.503 NRS=5.073 m=1 sa=250017 sb=250020
XM44 VDDA 8 VSSA VSSA sky130_fd_pr__nfet_g5v0d10v5 L=0.5 W=20 AD=15.1 AS=13.9 PD=21.51 PS=41.39 NRD=2.5308 NRS=2.2458 m=1 sa=250020 sb=250020
XM45 VDDA 8 VSSA VSSA sky130_fd_pr__nfet_g5v0d10v5 L=0.5 W=20 AD=15.1 AS=13.9 PD=21.51 PS=41.39 NRD=2.5308 NRS=2.2458 m=1 sa=250010 sb=250020
XM46 VDDA 8 VSSA VSSA sky130_fd_pr__nfet_g5v0d10v5 L=0.5 W=20 AD=15.1 AS=13.9 PD=21.51 PS=41.39 NRD=2.5308 NRS=2.2458 m=1 sa=250010 sb=250020
XM47 VDDA 8 VSSA VSSA sky130_fd_pr__nfet_g5v0d10v5 L=0.5 W=20 AD=15.1 AS=13.9 PD=21.51 PS=41.39 NRD=2.5308 NRS=2.2458 m=1 sa=250010 sb=250020
XM48 VDDA 8 VSSA VSSA sky130_fd_pr__nfet_g5v0d10v5 L=0.5 W=20 AD=15.1 AS=13.9 PD=21.51 PS=41.39 NRD=2.5308 NRS=2.2458 m=1 sa=250020 sb=250020
XM49 VDDA 8 VSSA VSSA sky130_fd_pr__nfet_g5v0d10v5 L=0.5 W=20 AD=15.1 AS=13.9 PD=21.51 PS=41.39 NRD=2.5308 NRS=2.2458 m=1 sa=250020 sb=250020
XM50 VDDA 8 VSSA VSSA sky130_fd_pr__nfet_g5v0d10v5 L=0.5 W=10 AD=7.55 AS=6.95 PD=11.51 PS=21.39 NRD=5.073 NRS=4.503 m=1 sa=250020 sb=250020
XM51 VSSA 8 VDDA VSSA sky130_fd_pr__nfet_g5v0d10v5 L=0.5 W=20 AD=13.9 AS=15.1 PD=41.39 PS=21.51 NRD=2.2458 NRS=2.5308 m=1 sa=250020 sb=250020
XM52 VSSA 8 VDDA VSSA sky130_fd_pr__nfet_g5v0d10v5 L=0.5 W=20 AD=13.9 AS=15.1 PD=41.39 PS=21.51 NRD=2.2458 NRS=2.5308 m=1 sa=250012 sb=250020
XM53 VSSA 8 VDDA VSSA sky130_fd_pr__nfet_g5v0d10v5 L=0.5 W=20 AD=13.9 AS=15.1 PD=41.39 PS=21.51 NRD=2.2458 NRS=2.5308 m=1 sa=250012 sb=250020
XM54 VSSA 8 VDDA VSSA sky130_fd_pr__nfet_g5v0d10v5 L=0.5 W=20 AD=13.9 AS=15.1 PD=41.39 PS=21.51 NRD=2.2458 NRS=2.5308 m=1 sa=250012 sb=250020
XM55 VSSA 8 VDDA VSSA sky130_fd_pr__nfet_g5v0d10v5 L=0.5 W=20 AD=13.9 AS=15.1 PD=41.39 PS=21.51 NRD=2.2458 NRS=2.5308 m=1 sa=250020 sb=250020
XM56 VSSA 8 VDDA VSSA sky130_fd_pr__nfet_g5v0d10v5 L=0.5 W=20 AD=13.9 AS=15.1 PD=41.39 PS=21.51 NRD=2.2458 NRS=2.5308 m=1 sa=250020 sb=250020
XM57 VSSA 8 VDDA VSSA sky130_fd_pr__nfet_g5v0d10v5 L=0.5 W=10 AD=6.95 AS=7.55 PD=21.39 PS=11.51 NRD=4.503 NRS=5.073 m=1 sa=250020 sb=250020
XM58 VDDA 8 VSSA VSSA sky130_fd_pr__nfet_g5v0d10v5 L=0.5 W=20 AD=15.1 AS=13.9 PD=21.51 PS=41.39 NRD=2.5308 NRS=2.2458 m=1 sa=250020 sb=250020
XM59 VDDA 8 VSSA VSSA sky130_fd_pr__nfet_g5v0d10v5 L=0.5 W=20 AD=15.1 AS=13.9 PD=21.51 PS=41.39 NRD=2.5308 NRS=2.2458 m=1 sa=250015 sb=250020
XM60 VDDA 8 VSSA VSSA sky130_fd_pr__nfet_g5v0d10v5 L=0.5 W=20 AD=15.1 AS=13.9 PD=21.51 PS=41.39 NRD=2.5308 NRS=2.2458 m=1 sa=250015 sb=250020
XM61 VDDA 8 VSSA VSSA sky130_fd_pr__nfet_g5v0d10v5 L=0.5 W=20 AD=15.1 AS=13.9 PD=21.51 PS=41.39 NRD=2.5308 NRS=2.2458 m=1 sa=250015 sb=250020
XM62 VDDA 8 VSSA VSSA sky130_fd_pr__nfet_g5v0d10v5 L=0.5 W=20 AD=15.1 AS=13.9 PD=21.51 PS=41.39 NRD=2.5308 NRS=2.2458 m=1 sa=250020 sb=250020
XM63 VDDA 8 VSSA VSSA sky130_fd_pr__nfet_g5v0d10v5 L=0.5 W=20 AD=15.1 AS=13.9 PD=21.51 PS=41.39 NRD=2.5308 NRS=2.2458 m=1 sa=250020 sb=250020
XM64 VDDA 8 VSSA VSSA sky130_fd_pr__nfet_g5v0d10v5 L=0.5 W=10 AD=7.55 AS=6.95 PD=11.51 PS=21.39 NRD=5.073 NRS=4.503 m=1 sa=250020 sb=250020
XM65 VSSA 8 VDDA VSSA sky130_fd_pr__nfet_g5v0d10v5 L=0.5 W=20 AD=13.9 AS=15.1 PD=41.39 PS=21.51 NRD=2.2458 NRS=2.5308 m=1 sa=250020 sb=250020
XM66 VSSA 8 VDDA VSSA sky130_fd_pr__nfet_g5v0d10v5 L=0.5 W=20 AD=13.9 AS=15.1 PD=41.39 PS=21.51 NRD=2.2458 NRS=2.5308 m=1 sa=250017 sb=250020
XM67 VSSA 8 VDDA VSSA sky130_fd_pr__nfet_g5v0d10v5 L=0.5 W=20 AD=13.9 AS=15.1 PD=41.39 PS=21.51 NRD=2.2458 NRS=2.5308 m=1 sa=250017 sb=250020
XM68 VSSA 8 VDDA VSSA sky130_fd_pr__nfet_g5v0d10v5 L=0.5 W=20 AD=13.9 AS=15.1 PD=41.39 PS=21.51 NRD=2.2458 NRS=2.5308 m=1 sa=250017 sb=250020
XM69 VSSA 8 VDDA VSSA sky130_fd_pr__nfet_g5v0d10v5 L=0.5 W=20 AD=13.9 AS=15.1 PD=41.39 PS=21.51 NRD=2.2458 NRS=2.5308 m=1 sa=250020 sb=250020
XM70 VSSA 8 VDDA VSSA sky130_fd_pr__nfet_g5v0d10v5 L=0.5 W=20 AD=13.9 AS=15.1 PD=41.39 PS=21.51 NRD=2.2458 NRS=2.5308 m=1 sa=250020 sb=250020
XM71 VSSA 8 VDDA VSSA sky130_fd_pr__nfet_g5v0d10v5 L=0.5 W=10 AD=6.95 AS=7.55 PD=21.39 PS=11.51 NRD=4.503 NRS=5.073 m=1 sa=250020 sb=250020
XM72 VDDA 8 VSSA VSSA sky130_fd_pr__nfet_g5v0d10v5 L=0.5 W=20 AD=15.1 AS=13.9 PD=21.51 PS=41.39 NRD=2.5308 NRS=2.2458 m=1 sa=250020 sb=250020
XM73 VDDA 8 VSSA VSSA sky130_fd_pr__nfet_g5v0d10v5 L=0.5 W=20 AD=15.1 AS=13.9 PD=21.51 PS=41.39 NRD=2.5308 NRS=2.2458 m=1 sa=250020 sb=250020
XM74 VDDA 8 VSSA VSSA sky130_fd_pr__nfet_g5v0d10v5 L=0.5 W=20 AD=15.1 AS=13.9 PD=21.51 PS=41.39 NRD=2.5308 NRS=2.2458 m=1 sa=250020 sb=250020
XM75 VDDA 8 VSSA VSSA sky130_fd_pr__nfet_g5v0d10v5 L=0.5 W=20 AD=15.1 AS=13.9 PD=21.51 PS=41.39 NRD=2.5308 NRS=2.2458 m=1 sa=250020 sb=250020
XM76 VDDA 8 VSSA VSSA sky130_fd_pr__nfet_g5v0d10v5 L=0.5 W=20 AD=15.1 AS=13.9 PD=21.51 PS=41.39 NRD=2.5308 NRS=2.2458 m=1 sa=250020 sb=250020
XM77 VDDA 8 VSSA VSSA sky130_fd_pr__nfet_g5v0d10v5 L=0.5 W=20 AD=15.1 AS=13.9 PD=21.51 PS=41.39 NRD=2.5308 NRS=2.2458 m=1 sa=250020 sb=250020
XM78 VDDA 8 VSSA VSSA sky130_fd_pr__nfet_g5v0d10v5 L=0.5 W=10 AD=7.55 AS=6.95 PD=11.51 PS=21.39 NRD=5.073 NRS=4.503 m=1 sa=250020 sb=250020
XM79 VSSA 8 VDDA VSSA sky130_fd_pr__nfet_g5v0d10v5 L=0.5 W=20 AD=13.9 AS=15.1 PD=41.39 PS=21.51 NRD=2.2458 NRS=2.5308 m=1 sa=250020 sb=250020
XM80 VSSA 8 VDDA VSSA sky130_fd_pr__nfet_g5v0d10v5 L=0.5 W=20 AD=13.9 AS=15.1 PD=41.39 PS=21.51 NRD=2.2458 NRS=2.5308 m=1 sa=250020 sb=250020
XM81 VSSA 8 VDDA VSSA sky130_fd_pr__nfet_g5v0d10v5 L=0.5 W=20 AD=13.9 AS=15.1 PD=41.39 PS=21.51 NRD=2.2458 NRS=2.5308 m=1 sa=250020 sb=250020
XM82 VSSA 8 VDDA VSSA sky130_fd_pr__nfet_g5v0d10v5 L=0.5 W=20 AD=13.9 AS=15.1 PD=41.39 PS=21.51 NRD=2.2458 NRS=2.5308 m=1 sa=250020 sb=250020
XM83 VSSA 8 VDDA VSSA sky130_fd_pr__nfet_g5v0d10v5 L=0.5 W=20 AD=13.9 AS=15.1 PD=41.39 PS=21.51 NRD=2.2458 NRS=2.5308 m=1 sa=250020 sb=250020
XM84 VSSA 8 VDDA VSSA sky130_fd_pr__nfet_g5v0d10v5 L=0.5 W=20 AD=13.9 AS=15.1 PD=41.39 PS=21.51 NRD=2.2458 NRS=2.5308 m=1 sa=250020 sb=250020
XM85 VSSA 8 VDDA VSSA sky130_fd_pr__nfet_g5v0d10v5 L=0.5 W=10 AD=6.95 AS=7.55 PD=21.39 PS=11.51 NRD=4.503 NRS=5.073 m=1 sa=250020 sb=250020