* SPICE NETLIST
***************************************

.SUBCKT drainOnly g s d b
.ENDS
***************************************
.SUBCKT condiode pin0 pin1
.ENDS
***************************************
.SUBCKT nvhv pin0 pin1 pin2 pin3
.ENDS
***************************************
.SUBCKT pvhv pin0 pin1 pin2 pin3
.ENDS
***************************************
.SUBCKT xcnwvc pin0 pin1 pin2
.ENDS
***************************************
.SUBCKT xcnwvc2 pin0 pin1 pin2
.ENDS
***************************************
.SUBCKT xchvnwc pin0 pin1 pin2
.ENDS
***************************************
.SUBCKT Dpar d0 d1
.ENDS
***************************************
.SUBCKT xcmvpp pin0 pin1 pin2
.ENDS
***************************************
.SUBCKT xcmvpp_2 pin0 pin1 pin2
.ENDS
***************************************
.SUBCKT xcmvpp2_nhvnative10x4 pin0 pin1 pin2
.ENDS
***************************************
.SUBCKT xcmvpp2_phv5x4 pin0 pin1 pin2
.ENDS
***************************************
.SUBCKT xcmvpp_hd5_atlas_fingercap2_l5 pin0 pin1 pin2
.ENDS
***************************************
.SUBCKT xcmvpp_hd5_atlas_wafflecap2 pin0 pin1 pin2
.ENDS
***************************************
.SUBCKT xcmvpp_hd5_atlas_wafflecap1 pin0 pin1 pin2
.ENDS
***************************************
.SUBCKT xcmvpp_hd5_atlas_fingercap_l40 pin0 pin1 pin2
.ENDS
***************************************
.SUBCKT xcmvpp_hd5_atlas_fingercap_l20 pin0 pin1 pin2
.ENDS
***************************************
.SUBCKT xcmvpp_hd5_atlas_fingercap_l10 pin0 pin1 pin2
.ENDS
***************************************
.SUBCKT xcmvpp_hd5_atlas_fingercap_l5 pin0 pin1 pin2
.ENDS
***************************************
.SUBCKT xcmvpp_hd5_5x2_met5pullin pin0 pin1 pin2
.ENDS
***************************************
.SUBCKT xcmvpp_hd5_5x2 pin0 pin1 pin2
.ENDS
***************************************
.SUBCKT xcmvpp_hd5_5x1_met5pullin pin0 pin1 pin2
.ENDS
***************************************
.SUBCKT xcmvpp_hd5_5x1 pin0 pin1 pin2
.ENDS
***************************************
.SUBCKT xcmvpp_hd5_4x2 pin0 pin1 pin2
.ENDS
***************************************
.SUBCKT xcmvpp_hd5_4x1 pin0 pin1 pin2
.ENDS
***************************************
.SUBCKT xcmvpp_hd5_3x2 pin0 pin1 pin2
.ENDS
***************************************
.SUBCKT xcmvpp_hd5_3x1 pin0 pin1 pin2
.ENDS
***************************************
.SUBCKT xcmvpp_hd5_2x2 pin0 pin1 pin2
.ENDS
***************************************
.SUBCKT xcmvpp_hd5_2x1 pin0 pin1 pin2
.ENDS
***************************************
.SUBCKT xcmvpp_hd5_1x2 pin0 pin1 pin2
.ENDS
***************************************
.SUBCKT xcmvpp_hd5_1x1 pin0 pin1 pin2
.ENDS
***************************************
.SUBCKT xcmvppx4_2xnhvnative10x4 pin0 pin1 pin2 pin3
.ENDS
***************************************
.SUBCKT xcmvpp11p5x11p7_polym50p4shield pin0 pin1 pin2 pin3
.ENDS
***************************************
.SUBCKT xcmvpp4p4x4p6_m3_lim5shield pin0 pin1 pin2 pin3
.ENDS
***************************************
.SUBCKT xcmvpp11p5x11p7_m3_lim5shield pin0 pin1 pin2 pin3
.ENDS
***************************************
.SUBCKT xcmvpp8p6x7p9_m3_lim5shield pin0 pin1 pin2 pin3
.ENDS
***************************************
.SUBCKT xcmvpp11p5x11p7_lim5shield pin0 pin1 pin2 pin3
.ENDS
***************************************
.SUBCKT xcmvpp11p5x11p7_polym5shield pin0 pin1 pin2 pin3
.ENDS
***************************************
.SUBCKT xcmvpp11p5x11p7_m5shield pin0 pin1 pin2 pin3
.ENDS
***************************************
.SUBCKT xcmvpp6p8x6p1_lim4shield pin0 pin1 pin2 pin3
.ENDS
***************************************
.SUBCKT xcmvpp6p8x6p1_polym4shield pin0 pin1 pin2 pin3
.ENDS
***************************************
.SUBCKT xcmvpp11p5x11p7_polym4shield pin0 pin1 pin2 pin3
.ENDS
***************************************
.SUBCKT xcmvpp11p5x11p7_m4shield pin0 pin1 pin2 pin3
.ENDS
***************************************
.SUBCKT xcmvpp1p8x1p8 pin0 pin1 pin2
.ENDS
***************************************
.SUBCKT xcmvpp4p4x4p6_m3_lishield pin0 pin1 pin2
.ENDS
***************************************
.SUBCKT xcmvpp8p6x7p9_m3_lishield pin0 pin1 pin2
.ENDS
***************************************
.SUBCKT xcmvpp11p5x11p7_m3_lishield pin0 pin1 pin2
.ENDS
***************************************
.SUBCKT xcmvpp11p5x11p7_m3shield c0 c1 b term4
.ENDS
***************************************
.SUBCKT xcmvpp8p6x7p9_m3shield c0 c1 b term4
.ENDS
***************************************
.SUBCKT xcmvpp4p4x4p6_m3shield c0 c1 b term4
.ENDS
***************************************
.SUBCKT xcmvpp1p8x1p8_m3shield c0 c1 b term4
.ENDS
***************************************
.SUBCKT xcmvpp11p5x11p7_m1m4m5shield pin0 pin1 pin2 pin3
.ENDS
***************************************
.SUBCKT xcmvpp11p5x11p7_m1m4 pin0 pin1 pin2
.ENDS
***************************************
.SUBCKT xcmvpp11p5x11p7_m1m2 pin0 pin1 pin2
.ENDS
***************************************
.SUBCKT xcmvpp4p4x4p6_m1m2 pin0 pin1 pin2
.ENDS
***************************************
.SUBCKT xcmvpp5 pin0 pin1 pin2
.ENDS
***************************************
.SUBCKT xcmvpp4 pin0 pin1 pin2
.ENDS
***************************************
.SUBCKT xcmvpp3 pin0 pin1 pin2
.ENDS
***************************************
.SUBCKT balun pin0 pin1 pin2 pin3 pin4 pin5
.ENDS
***************************************
.SUBCKT ind4 pin0 pin1 pin2 pin3
.ENDS
***************************************
.SUBCKT Probe probe conductor
.ENDS
***************************************
.SUBCKT sky130_fd_pr__nfet_01v8__example_55959141808592 1 2 3 4
** N=4 EP=4 IP=0 FDC=1
M0 4 2 3 1 nhv L=0.5 W=0.42 m=1 r=0.84 a=0.21 p=1.84 mult=1 $X=0 $Y=0 $D=49
.ENDS
***************************************
.SUBCKT sky130_fd_pr__hvdfl1sd2__example_55959141808306
** N=2 EP=0 IP=0 FDC=0
.ENDS
***************************************
.SUBCKT sky130_fd_pr__nfet_01v8__example_55959141808593 1 2 3 4
** N=4 EP=4 IP=4 FDC=1
M0 4 2 3 1 nhv L=0.5 W=3 m=1 r=6 a=1.5 p=7 mult=1 $X=0 $Y=0 $D=49
.ENDS
***************************************
.SUBCKT sky130_fd_pr__hvdfl1sd2__example_55959141808378
** N=2 EP=0 IP=0 FDC=0
.ENDS
***************************************
.SUBCKT ICV_1
** N=2 EP=0 IP=4 FDC=0
.ENDS
***************************************
.SUBCKT sky130_fd_io__res75only_small PAD ROUT
** N=3 EP=2 IP=0 FDC=1
R0 PAD ROUT L=3.15 W=2 m=1 $[mrp1] $X=630 $Y=10 $D=250
.ENDS
***************************************
.SUBCKT sky130_fd_pr__hvdfl1sd2__example_55959141808559
** N=2 EP=0 IP=0 FDC=0
.ENDS
***************************************
.SUBCKT ICV_2
** N=2 EP=0 IP=4 FDC=0
.ENDS
***************************************
.SUBCKT sky130_fd_pr__hvdfm1sd2__example_55959141808251
** N=2 EP=0 IP=0 FDC=0
.ENDS
***************************************
.SUBCKT sky130_fd_pr__dfm1sd2__example_55959141808561
** N=2 EP=0 IP=0 FDC=0
.ENDS
***************************************
.SUBCKT sky130_fd_pr__nfet_01v8__example_55959141808560 1 2 3 4 5
** N=5 EP=5 IP=16 FDC=7
M0 5 2 3 1 nhv L=0.5 W=7 m=1 r=14 a=3.5 p=15 mult=1 $X=0 $Y=0 $D=49
M1 3 2 5 1 nhv L=0.5 W=7 m=1 r=14 a=3.5 p=15 mult=1 $X=780 $Y=0 $D=49
M2 5 2 3 1 nhv L=0.5 W=7 m=1 r=14 a=3.5 p=15 mult=1 $X=1630 $Y=0 $D=49
M3 4 2 5 1 nhv L=0.5 W=7 m=1 r=14 a=3.5 p=15 mult=1 $X=2410 $Y=0 $D=49
M4 5 2 4 1 nhv L=0.5 W=7 m=1 r=14 a=3.5 p=15 mult=1 $X=3260 $Y=0 $D=49
M5 4 2 5 1 nhv L=0.5 W=7 m=1 r=14 a=3.5 p=15 mult=1 $X=4040 $Y=0 $D=49
M6 5 2 4 1 nhv L=0.5 W=7 m=1 r=14 a=3.5 p=15 mult=1 $X=4890 $Y=0 $D=49
.ENDS
***************************************
.SUBCKT sky130_fd_pr__hvdfm1sd2__example_55959141808563
** N=3 EP=0 IP=0 FDC=0
*.SEEDPROM
.ENDS
***************************************
.SUBCKT ICV_3
** N=4 EP=0 IP=6 FDC=0
*.SEEDPROM
.ENDS
***************************************
.SUBCKT sky130_fd_io__amux_switch_1v2b VSSD 3 6 VDDIO VDDA PG_PAD_VDDIOQ_H_N PG_AMX_VDDA_H_N NG_AMX_VPMP_H NG_PAD_VPMP_H PAD_HV_P0 PAD_HV_P1 AMUXBUS_HV PAD_HV_N2 PAD_HV_N3 PAD_HV_N0 PAD_HV_N1
** N=19 EP=16 IP=54 FDC=47
*.SEEDPROM
M0 PAD_HV_N2 NG_PAD_VPMP_H 6 6 nhv L=0.5 W=7 m=1 r=14 a=3.5 p=15 mult=1 $X=42660 $Y=2715 $D=49
M1 6 NG_PAD_VPMP_H PAD_HV_N2 6 nhv L=0.5 W=7 m=1 r=14 a=3.5 p=15 mult=1 $X=43440 $Y=2715 $D=49
M2 PAD_HV_N2 NG_PAD_VPMP_H 6 6 nhv L=0.5 W=7 m=1 r=14 a=3.5 p=15 mult=1 $X=44290 $Y=2715 $D=49
M3 6 NG_PAD_VPMP_H PAD_HV_N2 6 nhv L=0.5 W=7 m=1 r=14 a=3.5 p=15 mult=1 $X=45070 $Y=2715 $D=49
M4 PAD_HV_N3 NG_PAD_VPMP_H 6 6 nhv L=0.5 W=7 m=1 r=14 a=3.5 p=15 mult=1 $X=45920 $Y=2715 $D=49
M5 6 NG_PAD_VPMP_H PAD_HV_N3 6 nhv L=0.5 W=7 m=1 r=14 a=3.5 p=15 mult=1 $X=46700 $Y=2715 $D=49
M6 PAD_HV_N3 NG_PAD_VPMP_H 6 6 nhv L=0.5 W=7 m=1 r=14 a=3.5 p=15 mult=1 $X=47550 $Y=2715 $D=49
M7 6 NG_PAD_VPMP_H PAD_HV_N3 6 nhv L=0.5 W=7 m=1 r=14 a=3.5 p=15 mult=1 $X=48330 $Y=2715 $D=49
M8 3 PG_PAD_VDDIOQ_H_N PAD_HV_P0 VDDIO phv L=0.5 W=7 m=1 r=14 a=3.5 p=15 mult=1 $X=2070 $Y=2375 $D=109
M9 PAD_HV_P0 PG_PAD_VDDIOQ_H_N 3 VDDIO phv L=0.5 W=7 m=1 r=14 a=3.5 p=15 mult=1 $X=2850 $Y=2375 $D=109
M10 3 PG_PAD_VDDIOQ_H_N PAD_HV_P0 VDDIO phv L=0.5 W=7 m=1 r=14 a=3.5 p=15 mult=1 $X=3700 $Y=2375 $D=109
M11 PAD_HV_P1 PG_PAD_VDDIOQ_H_N 3 VDDIO phv L=0.5 W=7 m=1 r=14 a=3.5 p=15 mult=1 $X=4480 $Y=2375 $D=109
M12 3 PG_PAD_VDDIOQ_H_N PAD_HV_P1 VDDIO phv L=0.5 W=7 m=1 r=14 a=3.5 p=15 mult=1 $X=5330 $Y=2375 $D=109
M13 PAD_HV_P1 PG_PAD_VDDIOQ_H_N 3 VDDIO phv L=0.5 W=7 m=1 r=14 a=3.5 p=15 mult=1 $X=6110 $Y=2375 $D=109
M14 3 PG_AMX_VDDA_H_N AMUXBUS_HV VDDA phv L=0.5 W=7 m=1 r=14 a=3.5 p=15 mult=1 $X=11455 $Y=2375 $D=109
M15 AMUXBUS_HV PG_AMX_VDDA_H_N 3 VDDA phv L=0.5 W=7 m=1 r=14 a=3.5 p=15 mult=1 $X=12305 $Y=2375 $D=109
M16 3 PG_AMX_VDDA_H_N AMUXBUS_HV VDDA phv L=0.5 W=7 m=1 r=14 a=3.5 p=15 mult=1 $X=13085 $Y=2375 $D=109
M17 AMUXBUS_HV PG_AMX_VDDA_H_N 3 VDDA phv L=0.5 W=7 m=1 r=14 a=3.5 p=15 mult=1 $X=13935 $Y=2375 $D=109
M18 3 PG_AMX_VDDA_H_N AMUXBUS_HV VDDA phv L=0.5 W=7 m=1 r=14 a=3.5 p=15 mult=1 $X=14715 $Y=2375 $D=109
X19 3 VDDA condiode a=1e-06 p=0.004 m=1 ahftempperim=0.004 $X=25715 $Y=10775 $D=150
X20 6 VDDA condiode a=1e-06 p=0.004 m=1 ahftempperim=0.004 $X=40885 $Y=10825 $D=150
X21 VSSD VDDA Dpar a=0.10455 p=0 m=1 $[nwdiode] $X=34850 $Y=-365 $D=183
X22 3 VDDA Dpar a=141.419 p=48.37 m=1 $[dnwdiode_pw] $X=19595 $Y=1065 $D=188
X23 6 VDDA Dpar a=144.747 p=49.61 m=1 $[dnwdiode_pw] $X=35050 $Y=1575 $D=188
X24 VSSD VDDIO Dpar a=64.774 p=32.54 m=1 $[nwdiode] $X=850 $Y=1470 $D=185
X25 VSSD VDDA Dpar a=66.495 p=33.14 m=1 $[nwdiode] $X=9925 $Y=1120 $D=185
X31 3 NG_AMX_VPMP_H AMUXBUS_HV AMUXBUS_HV 3 sky130_fd_pr__nfet_01v8__example_55959141808560 $T=26270 2375 1 180 $X=20420 $Y=2195
X32 3 NG_PAD_VPMP_H PAD_HV_N0 PAD_HV_N1 3 sky130_fd_pr__nfet_01v8__example_55959141808560 $T=27235 2375 0 0 $X=26740 $Y=2195
X33 6 NG_AMX_VPMP_H 6 6 AMUXBUS_HV sky130_fd_pr__nfet_01v8__example_55959141808560 $T=41695 2715 1 180 $X=35845 $Y=2535
.ENDS
***************************************
.SUBCKT sky130_fd_pr__hvdfl1sd2__example_55959141808178
** N=3 EP=0 IP=0 FDC=0
*.SEEDPROM
.ENDS
***************************************
.SUBCKT sky130_fd_pr__hvdfl1sd__example_55959141808278
** N=2 EP=0 IP=0 FDC=0
.ENDS
***************************************
.SUBCKT sky130_fd_pr__hvdfl1sd2__example_55959141808462
** N=2 EP=0 IP=0 FDC=0
.ENDS
***************************************
.SUBCKT sky130_fd_pr__nfet_01v8__example_55959141808583 1 2 3 4
** N=4 EP=4 IP=6 FDC=2
M0 4 2 3 1 nhv L=0.5 W=1.5 m=1 r=3 a=0.75 p=4 mult=1 $X=0 $Y=0 $D=49
M1 3 2 4 1 nhv L=0.5 W=1.5 m=1 r=3 a=0.75 p=4 mult=1 $X=780 $Y=0 $D=49
.ENDS
***************************************
.SUBCKT sky130_fd_pr__nfet_01v8__example_55959141808498 1 2 3
** N=3 EP=3 IP=0 FDC=2
M0 3 2 1 1 nlowvt L=0.15 W=1 m=1 r=6.66667 a=0.15 p=2.3 mult=1 $X=0 $Y=0 $D=19
M1 1 2 3 1 nlowvt L=0.15 W=1 m=1 r=6.66667 a=0.15 p=2.3 mult=1 $X=430 $Y=0 $D=19
.ENDS
***************************************
.SUBCKT sky130_fd_pr__pfet_01v8__example_55959141808580 1 2 3
** N=3 EP=3 IP=0 FDC=1
M0 3 2 1 1 phv L=0.6 W=0.7 m=1 r=1.16667 a=0.42 p=2.6 mult=1 $X=0 $Y=0 $D=109
.ENDS
***************************************
.SUBCKT sky130_fd_io__gpiov2_amux_drvr_ls VGND VPWR_HV IN_B RST_H IN HLD_H_N OUT_H VPWR_LV OUT_H_N 10 11
** N=13 EP=11 IP=26 FDC=16
M0 OUT_H_N HLD_H_N 12 VGND nhv L=0.5 W=1.5 m=1 r=3 a=0.75 p=4 mult=1 $X=4650 $Y=2920 $D=49
M1 12 HLD_H_N OUT_H_N VGND nhv L=0.5 W=1.5 m=1 r=3 a=0.75 p=4 mult=1 $X=5430 $Y=2920 $D=49
M2 13 VPWR_LV 10 VGND nhvnative L=0.9 W=1 m=1 r=1.11111 a=0.9 p=3.8 mult=1 $X=3690 $Y=790 $D=59
M3 10 VPWR_LV 13 VGND nhvnative L=0.9 W=1 m=1 r=1.11111 a=0.9 p=3.8 mult=1 $X=4870 $Y=790 $D=59
M4 11 VPWR_LV 12 VGND nhvnative L=0.9 W=1 m=1 r=1.11111 a=0.9 p=3.8 mult=1 $X=6640 $Y=790 $D=59
M5 12 VPWR_LV 11 VGND nhvnative L=0.9 W=1 m=1 r=1.11111 a=0.9 p=3.8 mult=1 $X=7820 $Y=790 $D=59
X9 VGND RST_H OUT_H VGND sky130_fd_pr__nfet_01v8__example_55959141808583 $T=2190 4420 0 180 $X=465 $Y=2740
X10 VGND HLD_H_N OUT_H 13 sky130_fd_pr__nfet_01v8__example_55959141808583 $T=3750 4420 0 180 $X=2025 $Y=2740
X11 VGND IN_B 10 sky130_fd_pr__nfet_01v8__example_55959141808498 $T=1560 790 1 180 $X=535 $Y=610
X12 VGND IN 11 sky130_fd_pr__nfet_01v8__example_55959141808498 $T=2420 790 1 180 $X=1395 $Y=610
X13 VPWR_HV OUT_H OUT_H_N sky130_fd_pr__pfet_01v8__example_55959141808580 $T=7825 4820 0 180 $X=6630 $Y=3790
X14 VPWR_HV OUT_H_N OUT_H sky130_fd_pr__pfet_01v8__example_55959141808580 $T=8105 4820 1 0 $X=7510 $Y=3790
.ENDS
***************************************
.SUBCKT sky130_fd_pr__model__pfet_highvoltage__example_55959141808371 2 3 4
** N=4 EP=3 IP=0 FDC=1
M0 4 3 2 2 phv L=0.6 W=1 m=1 r=1.66667 a=0.6 p=3.2 mult=1 $X=0 $Y=0 $D=109
.ENDS
***************************************
.SUBCKT sky130_fd_pr__model__nfet_highvoltage__example_55959141808369 1 2 3
** N=3 EP=3 IP=0 FDC=1
M0 3 2 1 1 nhv L=0.6 W=0.7 m=1 r=1.16667 a=0.42 p=2.6 mult=1 $X=0 $Y=0 $D=49
.ENDS
***************************************
.SUBCKT sky130_fd_io__hvsbt_inv_x1 VGND VPWR 3 OUT
** N=4 EP=4 IP=11 FDC=3
X0 VPWR 3 OUT sky130_fd_pr__model__pfet_highvoltage__example_55959141808371 $T=595 3410 1 0 $X=0 $Y=2080
X1 VPWR 3 OUT sky130_fd_pr__model__pfet_highvoltage__example_55959141808371 $T=595 3750 0 0 $X=0 $Y=3420
X2 VGND 3 OUT sky130_fd_pr__model__nfet_highvoltage__example_55959141808369 $T=595 1420 1 0 $X=150 $Y=540
.ENDS
***************************************
.SUBCKT sky130_fd_pr__model__pfet_highvoltage__example_55959141808421 2 3 4 5 6
** N=6 EP=5 IP=0 FDC=2
M0 5 3 2 2 phv L=0.6 W=1 m=1 r=1.66667 a=0.6 p=3.2 mult=1 $X=0 $Y=0 $D=109
M1 6 4 5 2 phv L=0.6 W=1 m=1 r=1.66667 a=0.6 p=3.2 mult=1 $X=880 $Y=0 $D=109
.ENDS
***************************************
.SUBCKT sky130_fd_io__hvsbt_inv_x2 VGND VPWR IN OUT
** N=4 EP=4 IP=12 FDC=6
M0 OUT IN VGND VGND nhv L=0.6 W=0.7 m=1 r=1.16667 a=0.42 p=2.6 mult=1 $X=595 $Y=720 $D=49
M1 VGND IN OUT VGND nhv L=0.6 W=0.7 m=1 r=1.16667 a=0.42 p=2.6 mult=1 $X=1475 $Y=720 $D=49
X2 VPWR IN IN OUT VPWR sky130_fd_pr__model__pfet_highvoltage__example_55959141808421 $T=595 3410 1 0 $X=0 $Y=2080
X3 VPWR IN IN OUT VPWR sky130_fd_pr__model__pfet_highvoltage__example_55959141808421 $T=595 3750 0 0 $X=0 $Y=3420
.ENDS
***************************************
.SUBCKT sky130_fd_io__gpiov2_amx_inv4 VSSA VDA A Y
** N=4 EP=4 IP=0 FDC=4
M0 Y A VSSA VSSA nhv L=0.6 W=0.42 m=1 r=0.7 a=0.252 p=2.04 mult=1 $X=595 $Y=180 $D=49
M1 VSSA A Y VSSA nhv L=0.6 W=0.42 m=1 r=0.7 a=0.252 p=2.04 mult=1 $X=1475 $Y=180 $D=49
M2 Y A VDA VDA phv L=0.6 W=1 m=1 r=1.66667 a=0.6 p=3.2 mult=1 $X=595 $Y=1750 $D=109
M3 VDA A Y VDA phv L=0.6 W=1 m=1 r=1.66667 a=0.6 p=3.2 mult=1 $X=1475 $Y=1750 $D=109
.ENDS
***************************************
.SUBCKT sky130_fd_pr__nfet_01v8__example_55959141808570 1 2 3
** N=3 EP=3 IP=0 FDC=1
M0 3 2 1 1 nhv L=0.5 W=1 m=1 r=2 a=0.5 p=3 mult=1 $X=0 $Y=0 $D=49
.ENDS
***************************************
.SUBCKT sky130_fd_pr__dfl1sd__example_55959141808106
** N=2 EP=0 IP=0 FDC=0
.ENDS
***************************************
.SUBCKT sky130_fd_io__amx_inv1 2 3 4 5
** N=5 EP=4 IP=4 FDC=2
*.SEEDPROM
M0 5 4 2 2 nhv L=0.5 W=0.75 m=1 r=1.5 a=0.375 p=2.5 mult=1 $X=595 $Y=180 $D=49
M1 5 4 3 3 phv L=0.5 W=1.5 m=1 r=3 a=0.75 p=4 mult=1 $X=595 $Y=1910 $D=109
.ENDS
***************************************
.SUBCKT sky130_fd_pr__dfl1sd__example_5595914180819
** N=2 EP=0 IP=0 FDC=0
.ENDS
***************************************
.SUBCKT sky130_fd_pr__dfl1sd2__example_5595914180884
** N=2 EP=0 IP=0 FDC=0
.ENDS
***************************************
.SUBCKT sky130_fd_pr__nfet_01v8__example_55959141808569 1 2 3 4
** N=4 EP=4 IP=8 FDC=3
M0 4 2 3 1 nhv L=0.5 W=3 m=1 r=6 a=1.5 p=7 mult=1 $X=0 $Y=0 $D=49
M1 3 2 4 1 nhv L=0.5 W=3 m=1 r=6 a=1.5 p=7 mult=1 $X=780 $Y=0 $D=49
M2 4 2 3 1 nhv L=0.5 W=3 m=1 r=6 a=1.5 p=7 mult=1 $X=1560 $Y=0 $D=49
.ENDS
***************************************
.SUBCKT sky130_fd_pr__hvdfm1sd__example_55959141808242
** N=4 EP=0 IP=0 FDC=0
*.SEEDPROM
.ENDS
***************************************
.SUBCKT sky130_fd_pr__nfet_01v8__example_55959141808579 2 3 4
** N=5 EP=3 IP=8 FDC=1
*.SEEDPROM
M0 4 3 2 2 nhv L=0.5 W=1 m=1 r=2 a=0.5 p=3 mult=1 $X=0 $Y=0 $D=49
.ENDS
***************************************
.SUBCKT sky130_fd_pr__nfet_01v8__example_55959141808568 2 3 4
** N=5 EP=3 IP=4 FDC=1
*.SEEDPROM
M0 4 3 2 2 nhv L=0.5 W=3 m=1 r=6 a=1.5 p=7 mult=1 $X=0 $Y=0 $D=49
.ENDS
***************************************
.SUBCKT sky130_fd_pr__dfl1sd__example_55959141808504
** N=2 EP=0 IP=0 FDC=0
.ENDS
***************************************
.SUBCKT sky130_fd_pr__pfet_01v8__example_55959141808477 1 2 3
** N=3 EP=3 IP=0 FDC=1
M0 3 2 1 1 phv L=1 W=0.42 m=1 r=0.42 a=0.42 p=2.84 mult=1 $X=0 $Y=0 $D=109
.ENDS
***************************************
.SUBCKT sky130_fd_pr__pfet_01v8__example_55959141808567 2 3 4
** N=4 EP=3 IP=0 FDC=2
*.SEEDPROM
M0 4 3 2 2 phv L=0.5 W=1 m=1 r=2 a=0.5 p=3 mult=1 $X=0 $Y=0 $D=109
M1 2 3 4 2 phv L=0.5 W=1 m=1 r=2 a=0.5 p=3 mult=1 $X=780 $Y=0 $D=109
.ENDS
***************************************
.SUBCKT sky130_fd_io__gpiov2_amux_drvr VSSD VSSA VDDA VSWITCH VCCD VDDIO_Q 9 10 11 12 13 14 AMUX_EN_VDDA_H_N 16 AMUX_EN_VDDA_H 18 AMUX_EN_VDDIO_H_N 20 21 PD_CSD_VSWITCH_H
+ PU_CSD_VDDIOQ_H_N PGA_AMX_VDDA_H_N PGB_AMX_VDDA_H_N PD_CSD_VSWITCH_H_N NGA_PAD_VSWITCH_H NGA_PAD_VSWITCH_H_N AMUX_EN_VSWITCH_H NGA_AMX_VSWITCH_H NGB_AMX_VSWITCH_H NGB_PAD_VSWITCH_H NGB_PAD_VSWITCH_H_N D_B 35 36 NMIDA_ON_N NMIDA_VCCD NMIDA_VCCD_N AMUX_EN_VDDIO_H 41 42
+ 43 44 45 46 47 PGA_PAD_VDDIOQ_H_N PGB_PAD_VDDIOQ_H_N AMUXBUSA_ON_N AMUX_EN_VSWITCH_H_N AMUXBUSB_ON_N AMUXBUSA_ON AMUXBUSB_ON PU_ON_N PU_ON PD_ON_N PD_ON
** N=77 EP=56 IP=207 FDC=200
*.SEEDPROM
M0 PD_CSD_VSWITCH_H 13 VSSA VSSA nhv L=0.5 W=1.5 m=1 r=3 a=0.75 p=4 mult=1 $X=85960 $Y=-52310 $D=49
M1 VSSA VSSA PD_CSD_VSWITCH_H VSSA nhv L=0.5 W=1.5 m=1 r=3 a=0.75 p=4 mult=1 $X=85960 $Y=-51530 $D=49
M2 PD_CSD_VSWITCH_H AMUX_EN_VDDIO_H_N VSSA VSSA nhv L=0.5 W=1 m=1 r=2 a=0.5 p=3 mult=1 $X=99715 $Y=-47545 $D=49
M3 PU_CSD_VDDIOQ_H_N 21 VSSD VSSD nhv L=0.6 W=0.42 m=1 r=0.7 a=0.252 p=2.04 mult=1 $X=116545 $Y=-63050 $D=49
M4 VSSD 21 PU_CSD_VDDIOQ_H_N VSSD nhv L=0.6 W=0.42 m=1 r=0.7 a=0.252 p=2.04 mult=1 $X=117425 $Y=-63050 $D=49
M5 PU_CSD_VDDIOQ_H_N 21 VSSD VSSD nhv L=0.6 W=0.42 m=1 r=0.7 a=0.252 p=2.04 mult=1 $X=118305 $Y=-63050 $D=49
M6 VSSD 21 PU_CSD_VDDIOQ_H_N VSSD nhv L=0.6 W=0.42 m=1 r=0.7 a=0.252 p=2.04 mult=1 $X=119185 $Y=-63050 $D=49
M7 PU_CSD_VDDIOQ_H_N 21 VSSD VSSD nhv L=0.6 W=0.42 m=1 r=0.7 a=0.252 p=2.04 mult=1 $X=120065 $Y=-63050 $D=49
M8 VSSD 21 PU_CSD_VDDIOQ_H_N VSSD nhv L=0.6 W=0.42 m=1 r=0.7 a=0.252 p=2.04 mult=1 $X=120945 $Y=-63050 $D=49
M9 PU_CSD_VDDIOQ_H_N 21 VSSD VSSD nhv L=0.6 W=0.42 m=1 r=0.7 a=0.252 p=2.04 mult=1 $X=121825 $Y=-63050 $D=49
M10 PD_CSD_VSWITCH_H 13 VSWITCH VSWITCH phv L=2 W=0.75 m=1 r=0.375 a=1.5 p=5.5 mult=1 $X=89285 $Y=-52650 $D=109
M11 VSWITCH 13 PD_CSD_VSWITCH_H VSWITCH phv L=2 W=0.75 m=1 r=0.375 a=1.5 p=5.5 mult=1 $X=91565 $Y=-52650 $D=109
M12 PU_CSD_VDDIOQ_H_N 21 VDDIO_Q VDDIO_Q phv L=0.6 W=1 m=1 r=1.66667 a=0.6 p=3.2 mult=1 $X=116545 $Y=-61480 $D=109
M13 VDDIO_Q 21 PU_CSD_VDDIOQ_H_N VDDIO_Q phv L=0.6 W=1 m=1 r=1.66667 a=0.6 p=3.2 mult=1 $X=117425 $Y=-61480 $D=109
M14 PU_CSD_VDDIOQ_H_N 21 VDDIO_Q VDDIO_Q phv L=0.6 W=1 m=1 r=1.66667 a=0.6 p=3.2 mult=1 $X=118305 $Y=-61480 $D=109
M15 VDDIO_Q 21 PU_CSD_VDDIOQ_H_N VDDIO_Q phv L=0.6 W=1 m=1 r=1.66667 a=0.6 p=3.2 mult=1 $X=119185 $Y=-61480 $D=109
M16 PU_CSD_VDDIOQ_H_N 21 VDDIO_Q VDDIO_Q phv L=0.6 W=1 m=1 r=1.66667 a=0.6 p=3.2 mult=1 $X=120065 $Y=-61480 $D=109
M17 VDDIO_Q 21 PU_CSD_VDDIOQ_H_N VDDIO_Q phv L=0.6 W=1 m=1 r=1.66667 a=0.6 p=3.2 mult=1 $X=120945 $Y=-61480 $D=109
M18 PU_CSD_VDDIOQ_H_N 21 VDDIO_Q VDDIO_Q phv L=0.6 W=1 m=1 r=1.66667 a=0.6 p=3.2 mult=1 $X=121825 $Y=-61480 $D=109
X19 VSSA VSWITCH Dpar a=6.6852 p=10.51 m=1 $[dnwdiode_pw] $X=81395 $Y=-56075 $D=188
X20 VSSA VSWITCH Dpar a=51.6765 p=33.36 m=1 $[dnwdiode_pw] $X=91140 $Y=-56075 $D=188
X21 VSSA VSWITCH Dpar a=340.297 p=98.11 m=1 $[dnwdiode_pw] $X=81395 $Y=-51755 $D=188
X22 VSSD VSWITCH Dpar a=570.063 p=97.15 m=1 $[dnwdiode_psub] $X=80365 $Y=-57105 $D=187
X23 VSSD VDDIO_Q Dpar a=5.073 p=9.14 m=1 $[nwdiode] $X=87555 $Y=-64335 $D=185
X24 VSSD VDDIO_Q Dpar a=23.245 p=25.57 m=1 $[nwdiode] $X=112430 $Y=-61810 $D=185
X25 VSSD VDDIO_Q Dpar a=9.709 p=14.02 m=1 $[nwdiode] $X=129675 $Y=-59735 $D=185
X26 VSSD VDDIO_Q AMUXBUSA_ON_N AMUX_EN_VDDIO_H_N AMUXBUSA_ON AMUX_EN_VDDIO_H 16 VCCD 14 67 68 sky130_fd_io__gpiov2_amux_drvr_ls $T=80925 -68125 0 0 $X=81020 $Y=-68125
X27 VSSA VSWITCH AMUXBUSA_ON_N AMUX_EN_VSWITCH_H_N AMUXBUSA_ON AMUX_EN_VSWITCH_H 70 VCCD 41 42 69 sky130_fd_io__gpiov2_amux_drvr_ls $T=81655 -45415 1 0 $X=81750 $Y=-51105
X28 VSSA VSWITCH AMUXBUSB_ON_N AMUX_EN_VSWITCH_H_N AMUXBUSB_ON AMUX_EN_VSWITCH_H 72 VCCD 43 44 71 sky130_fd_io__gpiov2_amux_drvr_ls $T=81655 -46085 0 0 $X=81750 $Y=-46085
X29 VSSA VSWITCH PD_ON_N AMUX_EN_VSWITCH_H_N PD_ON AMUX_EN_VSWITCH_H 74 VCCD 13 45 73 sky130_fd_io__gpiov2_amux_drvr_ls $T=100460 -46085 1 180 $X=91160 $Y=-46085
X30 VSSD VDDIO_Q AMUXBUSB_ON_N AMUX_EN_VDDIO_H_N AMUXBUSB_ON AMUX_EN_VDDIO_H 18 VCCD 20 46 75 sky130_fd_io__gpiov2_amux_drvr_ls $T=123045 -63525 0 0 $X=123140 $Y=-63525
X31 VSSD VDDIO_Q PU_ON_N AMUX_EN_VDDIO_H_N PU_ON AMUX_EN_VDDIO_H 21 VCCD 76 47 77 sky130_fd_io__gpiov2_amux_drvr_ls $T=141415 -63525 1 180 $X=132115 $Y=-63525
X32 VSSD VCCD 35 D_B sky130_fd_io__hvsbt_inv_x1 $T=113710 -57510 1 180 $X=111685 $Y=-57510
X33 VSSD VCCD NMIDA_VCCD NMIDA_VCCD_N sky130_fd_io__hvsbt_inv_x1 $T=116320 -57510 0 0 $X=116090 $Y=-57510
X34 VSSD VCCD 36 35 sky130_fd_io__hvsbt_inv_x2 $T=112800 -57510 0 0 $X=112800 $Y=-57510
X35 VSSD VCCD NMIDA_ON_N NMIDA_VCCD sky130_fd_io__hvsbt_inv_x2 $T=114560 -57510 0 0 $X=114560 $Y=-57510
X36 VSSA VSWITCH 41 NGA_AMX_VSWITCH_H sky130_fd_io__gpiov2_amx_inv4 $T=95240 -47940 0 180 $X=92570 $Y=-51020
X37 VSSA VSWITCH 43 NGB_AMX_VSWITCH_H sky130_fd_io__gpiov2_amx_inv4 $T=97000 -47940 0 180 $X=94330 $Y=-51020
X38 VSSA VSWITCH 43 NGB_PAD_VSWITCH_H sky130_fd_io__gpiov2_amx_inv4 $T=96090 -47940 1 0 $X=96090 $Y=-51020
X39 VSSA VSWITCH 41 NGA_PAD_VSWITCH_H sky130_fd_io__gpiov2_amx_inv4 $T=100520 -47940 0 180 $X=97850 $Y=-51020
X40 VSSD VDDIO_Q 16 PGA_PAD_VDDIOQ_H_N sky130_fd_io__gpiov2_amx_inv4 $T=112430 -63230 0 0 $X=112430 $Y=-63230
X41 VSSD VDDIO_Q 18 PGB_PAD_VDDIOQ_H_N sky130_fd_io__gpiov2_amx_inv4 $T=116860 -63230 1 180 $X=114190 $Y=-63230
X42 VSSA 9 PGA_AMX_VDDA_H_N sky130_fd_pr__nfet_01v8__example_55959141808570 $T=92500 -35830 1 180 $X=91555 $Y=-36010
X43 VSSA AMUX_EN_VDDA_H_N 9 sky130_fd_pr__nfet_01v8__example_55959141808570 $T=92780 -35830 0 0 $X=92335 $Y=-36010
X44 VSSA AMUX_EN_VDDA_H_N 10 sky130_fd_pr__nfet_01v8__example_55959141808570 $T=101090 -35830 1 180 $X=100145 $Y=-36010
X45 VSSA 10 PGB_AMX_VDDA_H_N sky130_fd_pr__nfet_01v8__example_55959141808570 $T=101370 -35830 0 0 $X=100925 $Y=-36010
X46 VSSA VSWITCH PD_CSD_VSWITCH_H PD_CSD_VSWITCH_H_N sky130_fd_io__amx_inv1 $T=83710 -50175 0 180 $X=81920 $Y=-54085
X47 VSSA VSWITCH NGA_PAD_VSWITCH_H NGA_PAD_VSWITCH_H_N sky130_fd_io__amx_inv1 $T=82800 -50175 1 0 $X=82800 $Y=-54085
X48 VSSA VSWITCH NGB_PAD_VSWITCH_H NGB_PAD_VSWITCH_H_N sky130_fd_io__amx_inv1 $T=100880 -47280 1 0 $X=100880 $Y=-51190
X49 VSSA 14 65 9 sky130_fd_pr__nfet_01v8__example_55959141808569 $T=92640 -39960 1 180 $X=90135 $Y=-40140
X50 VSSA 16 65 11 sky130_fd_pr__nfet_01v8__example_55959141808569 $T=92920 -39960 0 0 $X=92475 $Y=-40140
X51 VSSA 18 66 12 sky130_fd_pr__nfet_01v8__example_55959141808569 $T=100950 -39960 1 180 $X=98445 $Y=-40140
X52 VSSA 20 66 10 sky130_fd_pr__nfet_01v8__example_55959141808569 $T=101230 -39960 0 0 $X=100785 $Y=-40140
X53 VSSA AMUX_EN_VDDA_H_N NGA_AMX_VSWITCH_H sky130_fd_pr__nfet_01v8__example_55959141808579 $T=94570 -46545 0 180 $X=93625 $Y=-47725
X54 VSSA AMUX_EN_VDDA_H_N NGB_AMX_VSWITCH_H sky130_fd_pr__nfet_01v8__example_55959141808579 $T=94850 -46545 1 0 $X=94405 $Y=-47725
X55 VSSA AMUX_EN_VDDIO_H_N NGB_PAD_VSWITCH_H sky130_fd_pr__nfet_01v8__example_55959141808579 $T=98100 -47545 1 180 $X=97155 $Y=-47725
X56 VSSA AMUX_EN_VDDIO_H_N NGA_PAD_VSWITCH_H sky130_fd_pr__nfet_01v8__example_55959141808579 $T=98380 -47545 0 0 $X=97935 $Y=-47725
X57 VSSA AMUX_EN_VDDA_H 65 sky130_fd_pr__nfet_01v8__example_55959141808568 $T=96380 -39960 1 180 $X=95435 $Y=-40140
X58 VSSA AMUX_EN_VDDA_H 66 sky130_fd_pr__nfet_01v8__example_55959141808568 $T=97490 -39960 0 0 $X=97045 $Y=-40140
X63 VDDA 11 9 sky130_fd_pr__pfet_01v8__example_55959141808477 $T=84780 -23935 0 180 $X=83185 $Y=-24685
X64 VDDA 12 10 sky130_fd_pr__pfet_01v8__example_55959141808477 $T=84780 -23025 1 180 $X=83185 $Y=-23355
X65 VDDA 9 11 sky130_fd_pr__pfet_01v8__example_55959141808477 $T=85060 -23935 1 0 $X=84465 $Y=-24685
X66 VDDA 10 12 sky130_fd_pr__pfet_01v8__example_55959141808477 $T=85060 -23025 0 0 $X=84465 $Y=-23355
X67 VDDA 9 PGA_AMX_VDDA_H_N sky130_fd_pr__pfet_01v8__example_55959141808567 $T=81600 -24935 0 0 $X=81005 $Y=-25265
X68 VDDA 10 PGB_AMX_VDDA_H_N sky130_fd_pr__pfet_01v8__example_55959141808567 $T=81600 -22025 1 0 $X=81005 $Y=-23355
*.CALIBRE WARNING OPEN Open circuit(s) detected by extraction in this cell. See extraction report for details.
.ENDS
***************************************
.SUBCKT sky130_fd_pr__nfet_01v8__example_55959141808465 1 2 3
** N=3 EP=3 IP=0 FDC=1
M0 3 2 1 1 nhv L=0.5 W=1 m=1 r=2 a=0.5 p=3 mult=1 $X=0 $Y=0 $D=49
.ENDS
***************************************
.SUBCKT sky130_fd_pr__pfet_01v8__example_55959141808460 2 3 4
** N=4 EP=3 IP=0 FDC=1
*.SEEDPROM
M0 4 3 2 2 phv L=0.5 W=0.75 m=1 r=1.5 a=0.375 p=2.5 mult=1 $X=0 $Y=0 $D=109
.ENDS
***************************************
.SUBCKT sky130_fd_io__gpiov2_amux_ctl_inv_1 VNB VPB IN VPWR OUT VGND
** N=6 EP=6 IP=0 FDC=2
*.SEEDPROM
M0 OUT IN VGND VNB nshort L=0.15 W=0.74 m=1 r=4.93333 a=0.111 p=1.78 mult=1 $X=960 $Y=370 $D=9
M1 OUT IN VPWR VPB phighvt L=0.25 W=1 m=1 r=4 a=0.25 p=2.5 mult=1 $X=850 $Y=1960 $D=89
.ENDS
***************************************
.SUBCKT sky130_fd_pr__hvdfl1sd__example_55959141808476
** N=2 EP=0 IP=0 FDC=0
.ENDS
***************************************
.SUBCKT sky130_fd_pr__pfet_01v8__example_55959141808590 2 3 4
** N=4 EP=3 IP=4 FDC=1
*.SEEDPROM
M0 4 3 2 2 phv L=0.5 W=1.5 m=1 r=3 a=0.75 p=4 mult=1 $X=0 $Y=0 $D=109
.ENDS
***************************************
.SUBCKT sky130_fd_io__tap_1
** N=4 EP=0 IP=0 FDC=0
*.SEEDPROM
*.CALIBRE ISOLATED NETS: VNB VPB VGND VPWR
.ENDS
***************************************
.SUBCKT sky130_fd_pr__hvdfl1sd__example_55959141808115
** N=2 EP=0 IP=0 FDC=0
.ENDS
***************************************
.SUBCKT sky130_fd_pr__nfet_01v8__example_55959141808589 1 2 3
** N=3 EP=3 IP=4 FDC=1
M0 3 2 1 1 nhv L=0.5 W=3 m=1 r=6 a=1.5 p=7 mult=1 $X=0 $Y=0 $D=49
.ENDS
***************************************
.SUBCKT sky130_fd_pr__pfet_01v8__example_55959141808475 1 2 3
** N=3 EP=3 IP=4 FDC=1
M0 3 2 1 1 phv L=0.5 W=1.5 m=1 r=3 a=0.75 p=4 mult=1 $X=0 $Y=0 $D=109
.ENDS
***************************************
.SUBCKT sky130_fd_pr__model__pfet_highvoltage__example_55959141808588 2 3 4 5
** N=5 EP=4 IP=4 FDC=1
*.SEEDPROM
M0 5 3 4 2 phv L=0.5 W=1.5 m=1 r=3 a=0.75 p=4 mult=1 $X=0 $Y=0 $D=109
.ENDS
***************************************
.SUBCKT sky130_fd_io__gpiov2_amux_ls VSSA VSSD VSWITCH VDDA VDDIO_Q VCCD ENABLE_VDDA_H AMUX_EN_VDDIO_H 15 ENABLE_VSWITCH_H AMUX_EN_VDDIO_H_N 18 19 20 21 HLD_I_H_N HLD_I_H AMUX_EN_VDDA_H_N AMUX_EN_VDDA_H AMUX_EN_VSWITCH_H_N
+ AMUX_EN_VSWITCH_H ANALOG_EN
** N=38 EP=22 IP=121 FDC=68
*.SEEDPROM
M0 35 32 34 VSSD nlowvt L=0.15 W=1 m=1 r=6.66667 a=0.15 p=2.3 mult=1 $X=74835 $Y=9805 $D=19
M1 34 32 35 VSSD nlowvt L=0.15 W=1 m=1 r=6.66667 a=0.15 p=2.3 mult=1 $X=75265 $Y=9805 $D=19
M2 35 32 34 VSSD nlowvt L=0.15 W=1 m=1 r=6.66667 a=0.15 p=2.3 mult=1 $X=75695 $Y=9805 $D=19
M3 34 32 35 VSSD nlowvt L=0.15 W=1 m=1 r=6.66667 a=0.15 p=2.3 mult=1 $X=76125 $Y=9805 $D=19
M4 36 33 34 VSSD nlowvt L=0.15 W=1 m=1 r=6.66667 a=0.15 p=2.3 mult=1 $X=76555 $Y=9805 $D=19
M5 34 33 36 VSSD nlowvt L=0.15 W=1 m=1 r=6.66667 a=0.15 p=2.3 mult=1 $X=76985 $Y=9805 $D=19
M6 36 33 34 VSSD nlowvt L=0.15 W=1 m=1 r=6.66667 a=0.15 p=2.3 mult=1 $X=77415 $Y=9805 $D=19
M7 34 33 36 VSSD nlowvt L=0.15 W=1 m=1 r=6.66667 a=0.15 p=2.3 mult=1 $X=77845 $Y=9805 $D=19
M8 18 ENABLE_VDDA_H VSSA VSSA nhv L=0.5 W=1 m=1 r=2 a=0.5 p=3 mult=1 $X=6130 $Y=75645 $D=49
M9 VSSA ENABLE_VSWITCH_H 21 VSSA nhv L=0.6 W=0.7 m=1 r=1.16667 a=0.42 p=2.6 mult=1 $X=6695 $Y=56350 $D=49
M10 34 HLD_I_H_N VSSD VSSD nhv L=0.5 W=1 m=1 r=2 a=0.5 p=3 mult=1 $X=77205 $Y=7535 $D=49
M11 VSSD HLD_I_H_N 34 VSSD nhv L=0.5 W=1 m=1 r=2 a=0.5 p=3 mult=1 $X=77985 $Y=7535 $D=49
M12 34 HLD_I_H_N VSSD VSSD nhv L=0.5 W=1 m=1 r=2 a=0.5 p=3 mult=1 $X=78765 $Y=7535 $D=49
M13 VSSD HLD_I_H_N 34 VSSD nhv L=0.5 W=1 m=1 r=2 a=0.5 p=3 mult=1 $X=79545 $Y=7535 $D=49
M14 30 VCCD 36 VSSD nhvnative L=0.9 W=1 m=1 r=1.11111 a=0.9 p=3.8 mult=1 $X=79635 $Y=10510 $D=59
M15 31 VCCD 35 VSSD nhvnative L=0.9 W=1 m=1 r=1.11111 a=0.9 p=3.8 mult=1 $X=79635 $Y=12160 $D=59
M16 36 VCCD 30 VSSD nhvnative L=0.9 W=1 m=1 r=1.11111 a=0.9 p=3.8 mult=1 $X=80815 $Y=10510 $D=59
M17 35 VCCD 31 VSSD nhvnative L=0.9 W=1 m=1 r=1.11111 a=0.9 p=3.8 mult=1 $X=80815 $Y=12160 $D=59