*SPEF "IEEE 1481-1998"
*DESIGN "mgmt_protect"
*DATE "Mon Nov 30 06:12:29 2020"
*VENDOR "AUC CSCE Department"
*PROGRAM "SPEF Extractor"
*VERSION "1.0"
*DESIGN_FLOW "PIN_CAP NONE"
*DIVIDER /
*DELIMITER :
*BUS_DELIMITER []
*T_UNIT 1.00000 NS
*C_UNIT 1.00000 PF
*R_UNIT 1.00000 OHM
*L_UNIT 1.00000 HENRY


*NAME_MAP
*0 caravel_clk
*1 caravel_clk2
*2 caravel_rstn
*3 la_data_in_core[0]
*4 la_data_in_core[100]
*5 la_data_in_core[101]
*6 la_data_in_core[102]
*7 la_data_in_core[103]
*8 la_data_in_core[104]
*9 la_data_in_core[105]
*10 la_data_in_core[106]
*11 la_data_in_core[107]
*12 la_data_in_core[108]
*13 la_data_in_core[109]
*14 la_data_in_core[10]
*15 la_data_in_core[110]
*16 la_data_in_core[111]
*17 la_data_in_core[112]
*18 la_data_in_core[113]
*19 la_data_in_core[114]
*20 la_data_in_core[115]
*21 la_data_in_core[116]
*22 la_data_in_core[117]
*23 la_data_in_core[118]
*24 la_data_in_core[119]
*25 la_data_in_core[11]
*26 la_data_in_core[120]
*27 la_data_in_core[121]
*28 la_data_in_core[122]
*29 la_data_in_core[123]
*30 la_data_in_core[124]
*31 la_data_in_core[125]
*32 la_data_in_core[126]
*33 la_data_in_core[127]
*34 la_data_in_core[12]
*35 la_data_in_core[13]
*36 la_data_in_core[14]
*37 la_data_in_core[15]
*38 la_data_in_core[16]
*39 la_data_in_core[17]
*40 la_data_in_core[18]
*41 la_data_in_core[19]
*42 la_data_in_core[1]
*43 la_data_in_core[20]
*44 la_data_in_core[21]
*45 la_data_in_core[22]
*46 la_data_in_core[23]
*47 la_data_in_core[24]
*48 la_data_in_core[25]
*49 la_data_in_core[26]
*50 la_data_in_core[27]
*51 la_data_in_core[28]
*52 la_data_in_core[29]
*53 la_data_in_core[2]
*54 la_data_in_core[30]
*55 la_data_in_core[31]
*56 la_data_in_core[32]
*57 la_data_in_core[33]
*58 la_data_in_core[34]
*59 la_data_in_core[35]
*60 la_data_in_core[36]
*61 la_data_in_core[37]
*62 la_data_in_core[38]
*63 la_data_in_core[39]
*64 la_data_in_core[3]
*65 la_data_in_core[40]
*66 la_data_in_core[41]
*67 la_data_in_core[42]
*68 la_data_in_core[43]
*69 la_data_in_core[44]
*70 la_data_in_core[45]
*71 la_data_in_core[46]
*72 la_data_in_core[47]
*73 la_data_in_core[48]
*74 la_data_in_core[49]
*75 la_data_in_core[4]
*76 la_data_in_core[50]
*77 la_data_in_core[51]
*78 la_data_in_core[52]
*79 la_data_in_core[53]
*80 la_data_in_core[54]
*81 la_data_in_core[55]
*82 la_data_in_core[56]
*83 la_data_in_core[57]
*84 la_data_in_core[58]
*85 la_data_in_core[59]
*86 la_data_in_core[5]
*87 la_data_in_core[60]
*88 la_data_in_core[61]
*89 la_data_in_core[62]
*90 la_data_in_core[63]
*91 la_data_in_core[64]
*92 la_data_in_core[65]
*93 la_data_in_core[66]
*94 la_data_in_core[67]
*95 la_data_in_core[68]
*96 la_data_in_core[69]
*97 la_data_in_core[6]
*98 la_data_in_core[70]
*99 la_data_in_core[71]
*100 la_data_in_core[72]
*101 la_data_in_core[73]
*102 la_data_in_core[74]
*103 la_data_in_core[75]
*104 la_data_in_core[76]
*105 la_data_in_core[77]
*106 la_data_in_core[78]
*107 la_data_in_core[79]
*108 la_data_in_core[7]
*109 la_data_in_core[80]
*110 la_data_in_core[81]
*111 la_data_in_core[82]
*112 la_data_in_core[83]
*113 la_data_in_core[84]
*114 la_data_in_core[85]
*115 la_data_in_core[86]
*116 la_data_in_core[87]
*117 la_data_in_core[88]
*118 la_data_in_core[89]
*119 la_data_in_core[8]
*120 la_data_in_core[90]
*121 la_data_in_core[91]
*122 la_data_in_core[92]
*123 la_data_in_core[93]
*124 la_data_in_core[94]
*125 la_data_in_core[95]
*126 la_data_in_core[96]
*127 la_data_in_core[97]
*128 la_data_in_core[98]
*129 la_data_in_core[99]
*130 la_data_in_core[9]
*131 la_data_in_mprj[0]
*132 la_data_in_mprj[100]
*133 la_data_in_mprj[101]
*134 la_data_in_mprj[102]
*135 la_data_in_mprj[103]
*136 la_data_in_mprj[104]
*137 la_data_in_mprj[105]
*138 la_data_in_mprj[106]
*139 la_data_in_mprj[107]
*140 la_data_in_mprj[108]
*141 la_data_in_mprj[109]
*142 la_data_in_mprj[10]
*143 la_data_in_mprj[110]
*144 la_data_in_mprj[111]
*145 la_data_in_mprj[112]
*146 la_data_in_mprj[113]
*147 la_data_in_mprj[114]
*148 la_data_in_mprj[115]
*149 la_data_in_mprj[116]
*150 la_data_in_mprj[117]
*151 la_data_in_mprj[118]
*152 la_data_in_mprj[119]
*153 la_data_in_mprj[11]
*154 la_data_in_mprj[120]
*155 la_data_in_mprj[121]
*156 la_data_in_mprj[122]
*157 la_data_in_mprj[123]
*158 la_data_in_mprj[124]
*159 la_data_in_mprj[125]
*160 la_data_in_mprj[126]
*161 la_data_in_mprj[127]
*162 la_data_in_mprj[12]
*163 la_data_in_mprj[13]
*164 la_data_in_mprj[14]
*165 la_data_in_mprj[15]
*166 la_data_in_mprj[16]
*167 la_data_in_mprj[17]
*168 la_data_in_mprj[18]
*169 la_data_in_mprj[19]
*170 la_data_in_mprj[1]
*171 la_data_in_mprj[20]
*172 la_data_in_mprj[21]
*173 la_data_in_mprj[22]
*174 la_data_in_mprj[23]
*175 la_data_in_mprj[24]
*176 la_data_in_mprj[25]
*177 la_data_in_mprj[26]
*178 la_data_in_mprj[27]
*179 la_data_in_mprj[28]
*180 la_data_in_mprj[29]
*181 la_data_in_mprj[2]
*182 la_data_in_mprj[30]
*183 la_data_in_mprj[31]
*184 la_data_in_mprj[32]
*185 la_data_in_mprj[33]
*186 la_data_in_mprj[34]
*187 la_data_in_mprj[35]
*188 la_data_in_mprj[36]
*189 la_data_in_mprj[37]
*190 la_data_in_mprj[38]
*191 la_data_in_mprj[39]
*192 la_data_in_mprj[3]
*193 la_data_in_mprj[40]
*194 la_data_in_mprj[41]
*195 la_data_in_mprj[42]
*196 la_data_in_mprj[43]
*197 la_data_in_mprj[44]
*198 la_data_in_mprj[45]
*199 la_data_in_mprj[46]
*200 la_data_in_mprj[47]
*201 la_data_in_mprj[48]
*202 la_data_in_mprj[49]
*203 la_data_in_mprj[4]
*204 la_data_in_mprj[50]
*205 la_data_in_mprj[51]
*206 la_data_in_mprj[52]
*207 la_data_in_mprj[53]
*208 la_data_in_mprj[54]
*209 la_data_in_mprj[55]
*210 la_data_in_mprj[56]
*211 la_data_in_mprj[57]
*212 la_data_in_mprj[58]
*213 la_data_in_mprj[59]
*214 la_data_in_mprj[5]
*215 la_data_in_mprj[60]
*216 la_data_in_mprj[61]
*217 la_data_in_mprj[62]
*218 la_data_in_mprj[63]
*219 la_data_in_mprj[64]
*220 la_data_in_mprj[65]
*221 la_data_in_mprj[66]
*222 la_data_in_mprj[67]
*223 la_data_in_mprj[68]
*224 la_data_in_mprj[69]
*225 la_data_in_mprj[6]
*226 la_data_in_mprj[70]
*227 la_data_in_mprj[71]
*228 la_data_in_mprj[72]
*229 la_data_in_mprj[73]
*230 la_data_in_mprj[74]
*231 la_data_in_mprj[75]
*232 la_data_in_mprj[76]
*233 la_data_in_mprj[77]
*234 la_data_in_mprj[78]
*235 la_data_in_mprj[79]
*236 la_data_in_mprj[7]
*237 la_data_in_mprj[80]
*238 la_data_in_mprj[81]
*239 la_data_in_mprj[82]
*240 la_data_in_mprj[83]
*241 la_data_in_mprj[84]
*242 la_data_in_mprj[85]
*243 la_data_in_mprj[86]
*244 la_data_in_mprj[87]
*245 la_data_in_mprj[88]
*246 la_data_in_mprj[89]
*247 la_data_in_mprj[8]
*248 la_data_in_mprj[90]
*249 la_data_in_mprj[91]
*250 la_data_in_mprj[92]
*251 la_data_in_mprj[93]
*252 la_data_in_mprj[94]
*253 la_data_in_mprj[95]
*254 la_data_in_mprj[96]
*255 la_data_in_mprj[97]
*256 la_data_in_mprj[98]
*257 la_data_in_mprj[99]
*258 la_data_in_mprj[9]
*259 la_data_out_core[0]
*260 la_data_out_core[100]
*261 la_data_out_core[101]
*262 la_data_out_core[102]
*263 la_data_out_core[103]
*264 la_data_out_core[104]
*265 la_data_out_core[105]
*266 la_data_out_core[106]
*267 la_data_out_core[107]
*268 la_data_out_core[108]
*269 la_data_out_core[109]
*270 la_data_out_core[10]
*271 la_data_out_core[110]
*272 la_data_out_core[111]
*273 la_data_out_core[112]
*274 la_data_out_core[113]
*275 la_data_out_core[114]
*276 la_data_out_core[115]
*277 la_data_out_core[116]
*278 la_data_out_core[117]
*279 la_data_out_core[118]
*280 la_data_out_core[119]
*281 la_data_out_core[11]
*282 la_data_out_core[120]
*283 la_data_out_core[121]
*284 la_data_out_core[122]
*285 la_data_out_core[123]
*286 la_data_out_core[124]
*287 la_data_out_core[125]
*288 la_data_out_core[126]
*289 la_data_out_core[127]
*290 la_data_out_core[12]
*291 la_data_out_core[13]
*292 la_data_out_core[14]
*293 la_data_out_core[15]
*294 la_data_out_core[16]
*295 la_data_out_core[17]
*296 la_data_out_core[18]
*297 la_data_out_core[19]
*298 la_data_out_core[1]
*299 la_data_out_core[20]
*300 la_data_out_core[21]
*301 la_data_out_core[22]
*302 la_data_out_core[23]
*303 la_data_out_core[24]
*304 la_data_out_core[25]
*305 la_data_out_core[26]
*306 la_data_out_core[27]
*307 la_data_out_core[28]
*308 la_data_out_core[29]
*309 la_data_out_core[2]
*310 la_data_out_core[30]
*311 la_data_out_core[31]
*312 la_data_out_core[32]
*313 la_data_out_core[33]
*314 la_data_out_core[34]
*315 la_data_out_core[35]
*316 la_data_out_core[36]
*317 la_data_out_core[37]
*318 la_data_out_core[38]
*319 la_data_out_core[39]
*320 la_data_out_core[3]
*321 la_data_out_core[40]
*322 la_data_out_core[41]
*323 la_data_out_core[42]
*324 la_data_out_core[43]
*325 la_data_out_core[44]
*326 la_data_out_core[45]
*327 la_data_out_core[46]
*328 la_data_out_core[47]
*329 la_data_out_core[48]
*330 la_data_out_core[49]
*331 la_data_out_core[4]
*332 la_data_out_core[50]
*333 la_data_out_core[51]
*334 la_data_out_core[52]
*335 la_data_out_core[53]
*336 la_data_out_core[54]
*337 la_data_out_core[55]
*338 la_data_out_core[56]
*339 la_data_out_core[57]
*340 la_data_out_core[58]
*341 la_data_out_core[59]
*342 la_data_out_core[5]
*343 la_data_out_core[60]
*344 la_data_out_core[61]
*345 la_data_out_core[62]
*346 la_data_out_core[63]
*347 la_data_out_core[64]
*348 la_data_out_core[65]
*349 la_data_out_core[66]
*350 la_data_out_core[67]
*351 la_data_out_core[68]
*352 la_data_out_core[69]
*353 la_data_out_core[6]
*354 la_data_out_core[70]
*355 la_data_out_core[71]
*356 la_data_out_core[72]
*357 la_data_out_core[73]
*358 la_data_out_core[74]
*359 la_data_out_core[75]
*360 la_data_out_core[76]
*361 la_data_out_core[77]
*362 la_data_out_core[78]
*363 la_data_out_core[79]
*364 la_data_out_core[7]
*365 la_data_out_core[80]
*366 la_data_out_core[81]
*367 la_data_out_core[82]
*368 la_data_out_core[83]
*369 la_data_out_core[84]
*370 la_data_out_core[85]
*371 la_data_out_core[86]
*372 la_data_out_core[87]
*373 la_data_out_core[88]
*374 la_data_out_core[89]
*375 la_data_out_core[8]
*376 la_data_out_core[90]
*377 la_data_out_core[91]
*378 la_data_out_core[92]
*379 la_data_out_core[93]
*380 la_data_out_core[94]
*381 la_data_out_core[95]
*382 la_data_out_core[96]
*383 la_data_out_core[97]
*384 la_data_out_core[98]
*385 la_data_out_core[99]
*386 la_data_out_core[9]
*387 la_data_out_mprj[0]
*388 la_data_out_mprj[100]
*389 la_data_out_mprj[101]
*390 la_data_out_mprj[102]
*391 la_data_out_mprj[103]
*392 la_data_out_mprj[104]
*393 la_data_out_mprj[105]
*394 la_data_out_mprj[106]
*395 la_data_out_mprj[107]
*396 la_data_out_mprj[108]
*397 la_data_out_mprj[109]
*398 la_data_out_mprj[10]
*399 la_data_out_mprj[110]
*400 la_data_out_mprj[111]
*401 la_data_out_mprj[112]
*402 la_data_out_mprj[113]
*403 la_data_out_mprj[114]
*404 la_data_out_mprj[115]
*405 la_data_out_mprj[116]
*406 la_data_out_mprj[117]
*407 la_data_out_mprj[118]
*408 la_data_out_mprj[119]
*409 la_data_out_mprj[11]
*410 la_data_out_mprj[120]
*411 la_data_out_mprj[121]
*412 la_data_out_mprj[122]
*413 la_data_out_mprj[123]
*414 la_data_out_mprj[124]
*415 la_data_out_mprj[125]
*416 la_data_out_mprj[126]
*417 la_data_out_mprj[127]
*418 la_data_out_mprj[12]
*419 la_data_out_mprj[13]
*420 la_data_out_mprj[14]
*421 la_data_out_mprj[15]
*422 la_data_out_mprj[16]
*423 la_data_out_mprj[17]
*424 la_data_out_mprj[18]
*425 la_data_out_mprj[19]
*426 la_data_out_mprj[1]
*427 la_data_out_mprj[20]
*428 la_data_out_mprj[21]
*429 la_data_out_mprj[22]
*430 la_data_out_mprj[23]
*431 la_data_out_mprj[24]
*432 la_data_out_mprj[25]
*433 la_data_out_mprj[26]
*434 la_data_out_mprj[27]
*435 la_data_out_mprj[28]
*436 la_data_out_mprj[29]
*437 la_data_out_mprj[2]
*438 la_data_out_mprj[30]
*439 la_data_out_mprj[31]
*440 la_data_out_mprj[32]
*441 la_data_out_mprj[33]
*442 la_data_out_mprj[34]
*443 la_data_out_mprj[35]
*444 la_data_out_mprj[36]
*445 la_data_out_mprj[37]
*446 la_data_out_mprj[38]
*447 la_data_out_mprj[39]
*448 la_data_out_mprj[3]
*449 la_data_out_mprj[40]
*450 la_data_out_mprj[41]
*451 la_data_out_mprj[42]
*452 la_data_out_mprj[43]
*453 la_data_out_mprj[44]
*454 la_data_out_mprj[45]
*455 la_data_out_mprj[46]
*456 la_data_out_mprj[47]
*457 la_data_out_mprj[48]
*458 la_data_out_mprj[49]
*459 la_data_out_mprj[4]
*460 la_data_out_mprj[50]
*461 la_data_out_mprj[51]
*462 la_data_out_mprj[52]
*463 la_data_out_mprj[53]
*464 la_data_out_mprj[54]
*465 la_data_out_mprj[55]
*466 la_data_out_mprj[56]
*467 la_data_out_mprj[57]
*468 la_data_out_mprj[58]
*469 la_data_out_mprj[59]
*470 la_data_out_mprj[5]
*471 la_data_out_mprj[60]
*472 la_data_out_mprj[61]
*473 la_data_out_mprj[62]
*474 la_data_out_mprj[63]
*475 la_data_out_mprj[64]
*476 la_data_out_mprj[65]
*477 la_data_out_mprj[66]
*478 la_data_out_mprj[67]
*479 la_data_out_mprj[68]
*480 la_data_out_mprj[69]
*481 la_data_out_mprj[6]
*482 la_data_out_mprj[70]
*483 la_data_out_mprj[71]
*484 la_data_out_mprj[72]
*485 la_data_out_mprj[73]
*486 la_data_out_mprj[74]
*487 la_data_out_mprj[75]
*488 la_data_out_mprj[76]
*489 la_data_out_mprj[77]
*490 la_data_out_mprj[78]
*491 la_data_out_mprj[79]
*492 la_data_out_mprj[7]
*493 la_data_out_mprj[80]
*494 la_data_out_mprj[81]
*495 la_data_out_mprj[82]
*496 la_data_out_mprj[83]
*497 la_data_out_mprj[84]
*498 la_data_out_mprj[85]
*499 la_data_out_mprj[86]
*500 la_data_out_mprj[87]
*501 la_data_out_mprj[88]
*502 la_data_out_mprj[89]
*503 la_data_out_mprj[8]
*504 la_data_out_mprj[90]
*505 la_data_out_mprj[91]
*506 la_data_out_mprj[92]
*507 la_data_out_mprj[93]
*508 la_data_out_mprj[94]
*509 la_data_out_mprj[95]
*510 la_data_out_mprj[96]
*511 la_data_out_mprj[97]
*512 la_data_out_mprj[98]
*513 la_data_out_mprj[99]
*514 la_data_out_mprj[9]
*515 la_oen_core[0]
*516 la_oen_core[100]
*517 la_oen_core[101]
*518 la_oen_core[102]
*519 la_oen_core[103]
*520 la_oen_core[104]
*521 la_oen_core[105]
*522 la_oen_core[106]
*523 la_oen_core[107]
*524 la_oen_core[108]
*525 la_oen_core[109]
*526 la_oen_core[10]
*527 la_oen_core[110]
*528 la_oen_core[111]
*529 la_oen_core[112]
*530 la_oen_core[113]
*531 la_oen_core[114]
*532 la_oen_core[115]
*533 la_oen_core[116]
*534 la_oen_core[117]
*535 la_oen_core[118]
*536 la_oen_core[119]
*537 la_oen_core[11]
*538 la_oen_core[120]
*539 la_oen_core[121]
*540 la_oen_core[122]
*541 la_oen_core[123]
*542 la_oen_core[124]
*543 la_oen_core[125]
*544 la_oen_core[126]
*545 la_oen_core[127]
*546 la_oen_core[12]
*547 la_oen_core[13]
*548 la_oen_core[14]
*549 la_oen_core[15]
*550 la_oen_core[16]
*551 la_oen_core[17]
*552 la_oen_core[18]
*553 la_oen_core[19]
*554 la_oen_core[1]
*555 la_oen_core[20]
*556 la_oen_core[21]
*557 la_oen_core[22]
*558 la_oen_core[23]
*559 la_oen_core[24]
*560 la_oen_core[25]
*561 la_oen_core[26]
*562 la_oen_core[27]
*563 la_oen_core[28]
*564 la_oen_core[29]
*565 la_oen_core[2]
*566 la_oen_core[30]
*567 la_oen_core[31]
*568 la_oen_core[32]
*569 la_oen_core[33]
*570 la_oen_core[34]
*571 la_oen_core[35]
*572 la_oen_core[36]
*573 la_oen_core[37]
*574 la_oen_core[38]
*575 la_oen_core[39]
*576 la_oen_core[3]
*577 la_oen_core[40]
*578 la_oen_core[41]
*579 la_oen_core[42]
*580 la_oen_core[43]
*581 la_oen_core[44]
*582 la_oen_core[45]
*583 la_oen_core[46]
*584 la_oen_core[47]
*585 la_oen_core[48]
*586 la_oen_core[49]
*587 la_oen_core[4]
*588 la_oen_core[50]
*589 la_oen_core[51]
*590 la_oen_core[52]
*591 la_oen_core[53]
*592 la_oen_core[54]
*593 la_oen_core[55]
*594 la_oen_core[56]
*595 la_oen_core[57]
*596 la_oen_core[58]
*597 la_oen_core[59]
*598 la_oen_core[5]
*599 la_oen_core[60]
*600 la_oen_core[61]
*601 la_oen_core[62]
*602 la_oen_core[63]
*603 la_oen_core[64]
*604 la_oen_core[65]
*605 la_oen_core[66]
*606 la_oen_core[67]
*607 la_oen_core[68]
*608 la_oen_core[69]
*609 la_oen_core[6]
*610 la_oen_core[70]
*611 la_oen_core[71]
*612 la_oen_core[72]
*613 la_oen_core[73]
*614 la_oen_core[74]
*615 la_oen_core[75]
*616 la_oen_core[76]
*617 la_oen_core[77]
*618 la_oen_core[78]
*619 la_oen_core[79]
*620 la_oen_core[7]
*621 la_oen_core[80]
*622 la_oen_core[81]
*623 la_oen_core[82]
*624 la_oen_core[83]
*625 la_oen_core[84]
*626 la_oen_core[85]
*627 la_oen_core[86]
*628 la_oen_core[87]
*629 la_oen_core[88]
*630 la_oen_core[89]
*631 la_oen_core[8]
*632 la_oen_core[90]
*633 la_oen_core[91]
*634 la_oen_core[92]
*635 la_oen_core[93]
*636 la_oen_core[94]
*637 la_oen_core[95]
*638 la_oen_core[96]
*639 la_oen_core[97]
*640 la_oen_core[98]
*641 la_oen_core[99]
*642 la_oen_core[9]
*643 la_oen_mprj[0]
*644 la_oen_mprj[100]
*645 la_oen_mprj[101]
*646 la_oen_mprj[102]
*647 la_oen_mprj[103]
*648 la_oen_mprj[104]
*649 la_oen_mprj[105]
*650 la_oen_mprj[106]
*651 la_oen_mprj[107]
*652 la_oen_mprj[108]
*653 la_oen_mprj[109]
*654 la_oen_mprj[10]
*655 la_oen_mprj[110]
*656 la_oen_mprj[111]
*657 la_oen_mprj[112]
*658 la_oen_mprj[113]
*659 la_oen_mprj[114]
*660 la_oen_mprj[115]
*661 la_oen_mprj[116]
*662 la_oen_mprj[117]
*663 la_oen_mprj[118]
*664 la_oen_mprj[119]
*665 la_oen_mprj[11]
*666 la_oen_mprj[120]
*667 la_oen_mprj[121]
*668 la_oen_mprj[122]
*669 la_oen_mprj[123]
*670 la_oen_mprj[124]
*671 la_oen_mprj[125]
*672 la_oen_mprj[126]
*673 la_oen_mprj[127]
*674 la_oen_mprj[12]
*675 la_oen_mprj[13]
*676 la_oen_mprj[14]
*677 la_oen_mprj[15]
*678 la_oen_mprj[16]
*679 la_oen_mprj[17]
*680 la_oen_mprj[18]
*681 la_oen_mprj[19]
*682 la_oen_mprj[1]
*683 la_oen_mprj[20]
*684 la_oen_mprj[21]
*685 la_oen_mprj[22]
*686 la_oen_mprj[23]
*687 la_oen_mprj[24]
*688 la_oen_mprj[25]
*689 la_oen_mprj[26]
*690 la_oen_mprj[27]
*691 la_oen_mprj[28]
*692 la_oen_mprj[29]
*693 la_oen_mprj[2]
*694 la_oen_mprj[30]
*695 la_oen_mprj[31]
*696 la_oen_mprj[32]
*697 la_oen_mprj[33]
*698 la_oen_mprj[34]
*699 la_oen_mprj[35]
*700 la_oen_mprj[36]
*701 la_oen_mprj[37]
*702 la_oen_mprj[38]
*703 la_oen_mprj[39]
*704 la_oen_mprj[3]
*705 la_oen_mprj[40]
*706 la_oen_mprj[41]
*707 la_oen_mprj[42]
*708 la_oen_mprj[43]
*709 la_oen_mprj[44]
*710 la_oen_mprj[45]
*711 la_oen_mprj[46]
*712 la_oen_mprj[47]
*713 la_oen_mprj[48]
*714 la_oen_mprj[49]
*715 la_oen_mprj[4]
*716 la_oen_mprj[50]
*717 la_oen_mprj[51]
*718 la_oen_mprj[52]
*719 la_oen_mprj[53]
*720 la_oen_mprj[54]
*721 la_oen_mprj[55]
*722 la_oen_mprj[56]
*723 la_oen_mprj[57]
*724 la_oen_mprj[58]
*725 la_oen_mprj[59]
*726 la_oen_mprj[5]
*727 la_oen_mprj[60]
*728 la_oen_mprj[61]
*729 la_oen_mprj[62]
*730 la_oen_mprj[63]
*731 la_oen_mprj[64]
*732 la_oen_mprj[65]
*733 la_oen_mprj[66]
*734 la_oen_mprj[67]
*735 la_oen_mprj[68]
*736 la_oen_mprj[69]
*737 la_oen_mprj[6]
*738 la_oen_mprj[70]
*739 la_oen_mprj[71]
*740 la_oen_mprj[72]
*741 la_oen_mprj[73]
*742 la_oen_mprj[74]
*743 la_oen_mprj[75]
*744 la_oen_mprj[76]
*745 la_oen_mprj[77]
*746 la_oen_mprj[78]
*747 la_oen_mprj[79]
*748 la_oen_mprj[7]
*749 la_oen_mprj[80]
*750 la_oen_mprj[81]
*751 la_oen_mprj[82]
*752 la_oen_mprj[83]
*753 la_oen_mprj[84]
*754 la_oen_mprj[85]
*755 la_oen_mprj[86]
*756 la_oen_mprj[87]
*757 la_oen_mprj[88]
*758 la_oen_mprj[89]
*759 la_oen_mprj[8]
*760 la_oen_mprj[90]
*761 la_oen_mprj[91]
*762 la_oen_mprj[92]
*763 la_oen_mprj[93]
*764 la_oen_mprj[94]
*765 la_oen_mprj[95]
*766 la_oen_mprj[96]
*767 la_oen_mprj[97]
*768 la_oen_mprj[98]
*769 la_oen_mprj[99]
*770 la_oen_mprj[9]
*771 mprj_adr_o_core[0]
*772 mprj_adr_o_core[10]
*773 mprj_adr_o_core[11]
*774 mprj_adr_o_core[12]
*775 mprj_adr_o_core[13]
*776 mprj_adr_o_core[14]
*777 mprj_adr_o_core[15]
*778 mprj_adr_o_core[16]
*779 mprj_adr_o_core[17]
*780 mprj_adr_o_core[18]
*781 mprj_adr_o_core[19]
*782 mprj_adr_o_core[1]
*783 mprj_adr_o_core[20]
*784 mprj_adr_o_core[21]
*785 mprj_adr_o_core[22]
*786 mprj_adr_o_core[23]
*787 mprj_adr_o_core[24]
*788 mprj_adr_o_core[25]
*789 mprj_adr_o_core[26]
*790 mprj_adr_o_core[27]
*791 mprj_adr_o_core[28]
*792 mprj_adr_o_core[29]
*793 mprj_adr_o_core[2]
*794 mprj_adr_o_core[30]
*795 mprj_adr_o_core[31]
*796 mprj_adr_o_core[3]
*797 mprj_adr_o_core[4]
*798 mprj_adr_o_core[5]
*799 mprj_adr_o_core[6]
*800 mprj_adr_o_core[7]
*801 mprj_adr_o_core[8]
*802 mprj_adr_o_core[9]
*803 mprj_adr_o_user[0]
*804 mprj_adr_o_user[10]
*805 mprj_adr_o_user[11]
*806 mprj_adr_o_user[12]
*807 mprj_adr_o_user[13]
*808 mprj_adr_o_user[14]
*809 mprj_adr_o_user[15]
*810 mprj_adr_o_user[16]
*811 mprj_adr_o_user[17]
*812 mprj_adr_o_user[18]
*813 mprj_adr_o_user[19]
*814 mprj_adr_o_user[1]
*815 mprj_adr_o_user[20]
*816 mprj_adr_o_user[21]
*817 mprj_adr_o_user[22]
*818 mprj_adr_o_user[23]
*819 mprj_adr_o_user[24]
*820 mprj_adr_o_user[25]
*821 mprj_adr_o_user[26]
*822 mprj_adr_o_user[27]
*823 mprj_adr_o_user[28]
*824 mprj_adr_o_user[29]
*825 mprj_adr_o_user[2]
*826 mprj_adr_o_user[30]
*827 mprj_adr_o_user[31]
*828 mprj_adr_o_user[3]
*829 mprj_adr_o_user[4]
*830 mprj_adr_o_user[5]
*831 mprj_adr_o_user[6]
*832 mprj_adr_o_user[7]
*833 mprj_adr_o_user[8]
*834 mprj_adr_o_user[9]
*835 mprj_cyc_o_core
*836 mprj_cyc_o_user
*837 mprj_dat_o_core[0]
*838 mprj_dat_o_core[10]
*839 mprj_dat_o_core[11]
*840 mprj_dat_o_core[12]
*841 mprj_dat_o_core[13]
*842 mprj_dat_o_core[14]
*843 mprj_dat_o_core[15]
*844 mprj_dat_o_core[16]
*845 mprj_dat_o_core[17]
*846 mprj_dat_o_core[18]
*847 mprj_dat_o_core[19]
*848 mprj_dat_o_core[1]
*849 mprj_dat_o_core[20]
*850 mprj_dat_o_core[21]
*851 mprj_dat_o_core[22]
*852 mprj_dat_o_core[23]
*853 mprj_dat_o_core[24]
*854 mprj_dat_o_core[25]
*855 mprj_dat_o_core[26]
*856 mprj_dat_o_core[27]
*857 mprj_dat_o_core[28]
*858 mprj_dat_o_core[29]
*859 mprj_dat_o_core[2]
*860 mprj_dat_o_core[30]
*861 mprj_dat_o_core[31]
*862 mprj_dat_o_core[3]
*863 mprj_dat_o_core[4]
*864 mprj_dat_o_core[5]
*865 mprj_dat_o_core[6]
*866 mprj_dat_o_core[7]
*867 mprj_dat_o_core[8]
*868 mprj_dat_o_core[9]
*869 mprj_dat_o_user[0]
*870 mprj_dat_o_user[10]
*871 mprj_dat_o_user[11]
*872 mprj_dat_o_user[12]
*873 mprj_dat_o_user[13]
*874 mprj_dat_o_user[14]
*875 mprj_dat_o_user[15]
*876 mprj_dat_o_user[16]
*877 mprj_dat_o_user[17]
*878 mprj_dat_o_user[18]
*879 mprj_dat_o_user[19]
*880 mprj_dat_o_user[1]
*881 mprj_dat_o_user[20]
*882 mprj_dat_o_user[21]
*883 mprj_dat_o_user[22]
*884 mprj_dat_o_user[23]
*885 mprj_dat_o_user[24]
*886 mprj_dat_o_user[25]
*887 mprj_dat_o_user[26]
*888 mprj_dat_o_user[27]
*889 mprj_dat_o_user[28]
*890 mprj_dat_o_user[29]
*891 mprj_dat_o_user[2]
*892 mprj_dat_o_user[30]
*893 mprj_dat_o_user[31]
*894 mprj_dat_o_user[3]
*895 mprj_dat_o_user[4]
*896 mprj_dat_o_user[5]
*897 mprj_dat_o_user[6]
*898 mprj_dat_o_user[7]
*899 mprj_dat_o_user[8]
*900 mprj_dat_o_user[9]
*901 mprj_sel_o_core[0]
*902 mprj_sel_o_core[1]
*903 mprj_sel_o_core[2]
*904 mprj_sel_o_core[3]
*905 mprj_sel_o_user[0]
*906 mprj_sel_o_user[1]
*907 mprj_sel_o_user[2]
*908 mprj_sel_o_user[3]
*909 mprj_stb_o_core
*910 mprj_stb_o_user
*911 mprj_we_o_core
*912 mprj_we_o_user
*913 user1_vcc_powergood
*914 user1_vdd_powergood
*915 user2_vcc_powergood
*916 user2_vdd_powergood
*917 user_clock
*918 user_clock2
*919 user_reset
*920 user_resetn
*921 _000_
*922 _001_
*923 _002_
*924 _003_
*925 _004_
*926 _005_
*927 _006_
*928 _007_
*929 _008_
*930 _009_
*931 _010_
*932 _011_
*933 _012_
*934 _013_
*935 _014_
*936 _015_
*937 _016_
*938 _017_
*939 _018_
*940 _019_
*941 _020_
*942 _021_
*943 _022_
*944 _023_
*945 _024_
*946 _025_
*947 _026_
*948 _027_
*949 _028_
*950 _029_
*951 _030_
*952 _031_
*953 _032_
*954 _033_
*955 _034_
*956 _035_
*957 _036_
*958 _037_
*959 _038_
*960 _039_
*961 _040_
*962 _041_
*963 _042_
*964 _043_
*965 _044_
*966 _045_
*967 _046_
*968 _047_
*969 _048_
*970 _049_
*971 _050_
*972 _051_
*973 _052_
*974 _053_
*975 _054_
*976 _055_
*977 _056_
*978 _057_
*979 _058_
*980 _059_
*981 _060_
*982 _061_
*983 _062_
*984 _063_
*985 _064_
*986 _065_
*987 _066_
*988 _067_
*989 _068_
*990 _069_
*991 _070_
*992 _071_
*993 _072_
*994 _073_
*995 _074_
*996 _075_
*997 _076_
*998 _077_
*999 _078_
*1000 _079_
*1001 _080_
*1002 _081_
*1003 _082_
*1004 _083_
*1005 _084_
*1006 _085_
*1007 _086_
*1008 _087_
*1009 _088_
*1010 _089_
*1011 _090_
*1012 _091_
*1013 _092_
*1014 _093_
*1015 _094_
*1016 _095_
*1017 _096_
*1018 _097_
*1019 _098_
*1020 _099_
*1021 _100_
*1022 _101_
*1023 _102_
*1024 _103_
*1025 _104_
*1026 _105_
*1027 _106_
*1028 _107_
*1029 _108_
*1030 _109_
*1031 _110_
*1032 _111_
*1033 _112_
*1034 _113_
*1035 _114_
*1036 _115_
*1037 _116_
*1038 _117_
*1039 _118_
*1040 _119_
*1041 _120_
*1042 _121_
*1043 _122_
*1044 _123_
*1045 _124_
*1046 _125_
*1047 _126_
*1048 _127_
*1049 _128_
*1050 _129_
*1051 _130_
*1052 _131_
*1053 _132_
*1054 _133_
*1055 _134_
*1056 _135_
*1057 _136_
*1058 _137_
*1059 _138_
*1060 _139_
*1061 _140_
*1062 _141_
*1063 _142_
*1064 _143_
*1065 _144_
*1066 _145_
*1067 _146_
*1068 _147_
*1069 _148_
*1070 _149_
*1071 _150_
*1072 _151_
*1073 _152_
*1074 _153_
*1075 _154_
*1076 _155_
*1077 _156_
*1078 _157_
*1079 _158_
*1080 _159_
*1081 _160_
*1082 _161_
*1083 _162_
*1084 _163_
*1085 _164_
*1086 _165_
*1087 _166_
*1088 _167_
*1089 _168_
*1090 _169_
*1091 _170_
*1092 _171_
*1093 _172_
*1094 _173_
*1095 _174_
*1096 _175_
*1097 _176_
*1098 _177_
*1099 _178_
*1100 _179_
*1101 _180_
*1102 _181_
*1103 _182_
*1104 _183_
*1105 _184_
*1106 _185_
*1107 _186_
*1108 _187_
*1109 _188_
*1110 _189_
*1111 _190_
*1112 _191_
*1113 _192_
*1114 _193_
*1115 _194_
*1116 _195_
*1117 _196_
*1118 _197_
*1119 _198_
*1120 _199_
*1121 _200_
*1122 _201_
*1123 _202_
*1124 _203_
*1125 _204_
*1126 _205_
*1127 _206_
*1128 _207_
*1129 _208_
*1130 _209_
*1131 _210_
*1132 _211_
*1133 _212_
*1134 _213_
*1135 _214_
*1136 _215_
*1137 _216_
*1138 _217_
*1139 _218_
*1140 _219_
*1141 _220_
*1142 _221_
*1143 _222_
*1144 _223_
*1145 _224_
*1146 _225_
*1147 _226_
*1148 _227_
*1149 _228_
*1150 _229_
*1151 _230_
*1152 _231_
*1153 _232_
*1154 _233_
*1155 _234_
*1156 _235_
*1157 _236_
*1158 _237_
*1159 _238_
*1160 _239_
*1161 _240_
*1162 _241_
*1163 _242_
*1164 _243_
*1165 _244_
*1166 _245_
*1167 _246_
*1168 _247_
*1169 _248_
*1170 _249_
*1171 _250_
*1172 _251_
*1173 _252_
*1174 _253_
*1175 _254_
*1176 _255_
*1177 _256_
*1178 _257_
*1179 _258_
*1180 _259_
*1181 _260_
*1182 _261_
*1183 _262_
*1184 _263_
*1185 _264_
*1186 _265_
*1187 _266_
*1188 _267_
*1189 _268_
*1190 _269_
*1191 _270_
*1192 _271_
*1193 _272_
*1194 _273_
*1195 _274_
*1196 _275_
*1197 _276_
*1198 _277_
*1199 _278_
*1200 _279_
*1201 _280_
*1202 _281_
*1203 _282_
*1204 _283_
*1205 _284_
*1206 _285_
*1207 _286_
*1208 _287_
*1209 _288_
*1210 _289_
*1211 _290_
*1212 _291_
*1213 _292_
*1214 _293_
*1215 _294_
*1216 _295_
*1217 _296_
*1218 _297_
*1219 _298_
*1220 _299_
*1221 _300_
*1222 _301_
*1223 _302_
*1224 _303_
*1225 _304_
*1226 _305_
*1227 _306_
*1228 _307_
*1229 _308_
*1230 _309_
*1231 _310_
*1232 _311_
*1233 _312_
*1234 _313_
*1235 _314_
*1236 _315_
*1237 _316_
*1238 _317_
*1239 _318_
*1240 _319_
*1241 _320_
*1242 _321_
*1243 _322_
*1244 _323_
*1245 _324_
*1246 _325_
*1247 _326_
*1248 _327_
*1249 _328_
*1250 _329_
*1251 la_data_in_mprj_bar\[0\]
*1252 la_data_in_mprj_bar\[100\]
*1253 la_data_in_mprj_bar\[101\]
*1254 la_data_in_mprj_bar\[102\]
*1255 la_data_in_mprj_bar\[103\]
*1256 la_data_in_mprj_bar\[104\]
*1257 la_data_in_mprj_bar\[105\]
*1258 la_data_in_mprj_bar\[106\]
*1259 la_data_in_mprj_bar\[107\]
*1260 la_data_in_mprj_bar\[108\]
*1261 la_data_in_mprj_bar\[109\]
*1262 la_data_in_mprj_bar\[10\]
*1263 la_data_in_mprj_bar\[110\]
*1264 la_data_in_mprj_bar\[111\]
*1265 la_data_in_mprj_bar\[112\]
*1266 la_data_in_mprj_bar\[113\]
*1267 la_data_in_mprj_bar\[114\]
*1268 la_data_in_mprj_bar\[115\]
*1269 la_data_in_mprj_bar\[116\]
*1270 la_data_in_mprj_bar\[117\]
*1271 la_data_in_mprj_bar\[118\]
*1272 la_data_in_mprj_bar\[119\]
*1273 la_data_in_mprj_bar\[11\]
*1274 la_data_in_mprj_bar\[120\]
*1275 la_data_in_mprj_bar\[121\]
*1276 la_data_in_mprj_bar\[122\]
*1277 la_data_in_mprj_bar\[123\]
*1278 la_data_in_mprj_bar\[124\]
*1279 la_data_in_mprj_bar\[125\]
*1280 la_data_in_mprj_bar\[126\]
*1281 la_data_in_mprj_bar\[127\]
*1282 la_data_in_mprj_bar\[12\]
*1283 la_data_in_mprj_bar\[13\]
*1284 la_data_in_mprj_bar\[14\]
*1285 la_data_in_mprj_bar\[15\]
*1286 la_data_in_mprj_bar\[16\]
*1287 la_data_in_mprj_bar\[17\]
*1288 la_data_in_mprj_bar\[18\]
*1289 la_data_in_mprj_bar\[19\]
*1290 la_data_in_mprj_bar\[1\]
*1291 la_data_in_mprj_bar\[20\]
*1292 la_data_in_mprj_bar\[21\]
*1293 la_data_in_mprj_bar\[22\]
*1294 la_data_in_mprj_bar\[23\]
*1295 la_data_in_mprj_bar\[24\]
*1296 la_data_in_mprj_bar\[25\]
*1297 la_data_in_mprj_bar\[26\]
*1298 la_data_in_mprj_bar\[27\]
*1299 la_data_in_mprj_bar\[28\]
*1300 la_data_in_mprj_bar\[29\]
*1301 la_data_in_mprj_bar\[2\]
*1302 la_data_in_mprj_bar\[30\]
*1303 la_data_in_mprj_bar\[31\]
*1304 la_data_in_mprj_bar\[32\]
*1305 la_data_in_mprj_bar\[33\]
*1306 la_data_in_mprj_bar\[34\]
*1307 la_data_in_mprj_bar\[35\]
*1308 la_data_in_mprj_bar\[36\]
*1309 la_data_in_mprj_bar\[37\]
*1310 la_data_in_mprj_bar\[38\]
*1311 la_data_in_mprj_bar\[39\]
*1312 la_data_in_mprj_bar\[3\]
*1313 la_data_in_mprj_bar\[40\]
*1314 la_data_in_mprj_bar\[41\]
*1315 la_data_in_mprj_bar\[42\]
*1316 la_data_in_mprj_bar\[43\]
*1317 la_data_in_mprj_bar\[44\]
*1318 la_data_in_mprj_bar\[45\]
*1319 la_data_in_mprj_bar\[46\]
*1320 la_data_in_mprj_bar\[47\]
*1321 la_data_in_mprj_bar\[48\]
*1322 la_data_in_mprj_bar\[49\]
*1323 la_data_in_mprj_bar\[4\]
*1324 la_data_in_mprj_bar\[50\]
*1325 la_data_in_mprj_bar\[51\]
*1326 la_data_in_mprj_bar\[52\]
*1327 la_data_in_mprj_bar\[53\]
*1328 la_data_in_mprj_bar\[54\]
*1329 la_data_in_mprj_bar\[55\]
*1330 la_data_in_mprj_bar\[56\]
*1331 la_data_in_mprj_bar\[57\]
*1332 la_data_in_mprj_bar\[58\]
*1333 la_data_in_mprj_bar\[59\]
*1334 la_data_in_mprj_bar\[5\]
*1335 la_data_in_mprj_bar\[60\]
*1336 la_data_in_mprj_bar\[61\]
*1337 la_data_in_mprj_bar\[62\]
*1338 la_data_in_mprj_bar\[63\]
*1339 la_data_in_mprj_bar\[64\]
*1340 la_data_in_mprj_bar\[65\]
*1341 la_data_in_mprj_bar\[66\]
*1342 la_data_in_mprj_bar\[67\]
*1343 la_data_in_mprj_bar\[68\]
*1344 la_data_in_mprj_bar\[69\]
*1345 la_data_in_mprj_bar\[6\]
*1346 la_data_in_mprj_bar\[70\]
*1347 la_data_in_mprj_bar\[71\]
*1348 la_data_in_mprj_bar\[72\]
*1349 la_data_in_mprj_bar\[73\]
*1350 la_data_in_mprj_bar\[74\]
*1351 la_data_in_mprj_bar\[75\]
*1352 la_data_in_mprj_bar\[76\]
*1353 la_data_in_mprj_bar\[77\]
*1354 la_data_in_mprj_bar\[78\]
*1355 la_data_in_mprj_bar\[79\]
*1356 la_data_in_mprj_bar\[7\]
*1357 la_data_in_mprj_bar\[80\]
*1358 la_data_in_mprj_bar\[81\]
*1359 la_data_in_mprj_bar\[82\]
*1360 la_data_in_mprj_bar\[83\]
*1361 la_data_in_mprj_bar\[84\]
*1362 la_data_in_mprj_bar\[85\]
*1363 la_data_in_mprj_bar\[86\]
*1364 la_data_in_mprj_bar\[87\]