.SUBCKT icecap c0
*.PININFO c0:B
.ENDS
.SUBCKT sky130_fd_io__amuxsplitv2_switch_levelshifter fbk fbk_n hold reset 
+ switch_lv switch_lv_n vgnd vpwr_hv vpwr_lv
*.PININFO hold:I reset:I switch_lv:I switch_lv_n:I fbk:O fbk_n:O vgnd:B 
*.PININFO vpwr_hv:B vpwr_lv:B
XICEnet97 net97 / icecap
XICEhold hold / icecap
XICEnet105 net105 / icecap
XICEfbk fbk / icecap
XICEfbk_n fbk_n / icecap
XICEreset reset / icecap
XICEnet109 net109 / icecap
XICEnet117 net117 / icecap
XICEswitch_lv_n switch_lv_n / icecap
XICEswitch_lv switch_lv / icecap
mI184 fbk reset vgnd vgnd nhv m=1 w=3.00 l=0.60 mult=1 sa=265e-3 sb=265e-3 
+ sd=280e-3 topography=normal area=0.063 perim=1.14
mI183 net97 vpwr_lv net109 vgnd nhvnative m=4 w=1.00 l=0.90 mult=1 sa=265e-3 
+ sb=265e-3 sd=280e-3 topography=normal area=0.063 perim=1.14
mI18 fbk hold net105 vgnd nhv m=1 w=3.00 l=0.60 mult=1 sa=265e-3 sb=265e-3 
+ sd=280e-3 topography=normal area=0.063 perim=1.14
mI182 net105 vpwr_lv net117 vgnd nhvnative m=4 w=1.00 l=0.90 mult=1 sa=265e-3 
+ sb=265e-3 sd=280e-3 topography=normal area=0.063 perim=1.14
mI16 net109 switch_lv vgnd vgnd nlowvt m=4 w=1.00 l=0.15 mult=1 sa=265e-3 
+ sb=265e-3 sd=280e-3 topography=normal area=0.063 perim=1.14
mI15 fbk_n hold net97 vgnd nhv m=1 w=3.00 l=0.60 mult=1 sa=265e-3 sb=265e-3 
+ sd=280e-3 topography=normal area=0.063 perim=1.14
mI19 net117 switch_lv_n vgnd vgnd nlowvt m=4 w=1.00 l=0.15 mult=1 sa=265e-3 
+ sb=265e-3 sd=280e-3 topography=normal area=0.063 perim=1.14
mI185 fbk_n fbk vpwr_hv vpwr_hv phv m=1 w=0.75 l=0.50 mult=1 sa=265e-3 
+ sb=265e-3 sd=280e-3 topography=normal area=0.063 perim=1.14
mI20 fbk fbk_n vpwr_hv vpwr_hv phv m=1 w=0.75 l=0.50 mult=1 sa=265e-3 
+ sb=265e-3 sd=280e-3 topography=normal area=0.063 perim=1.14
.ENDS
.SUBCKT sky130_fd_io__amuxsplitv2_switch_s0 hold in_lv out_h reset vccd vdda vssa 
+ vssd
*.PININFO hold:I in_lv:I reset:I out_h:O vccd:B vdda:B vssa:B vssd:B
XICEnet17 net17 / icecap
XICEout_h out_h / icecap
XICEreset reset / icecap
XICEin_lv_n in_lv_n / icecap
XICEin_lv_i in_lv_i / icecap
XICEnet13 net13 / icecap
XICEhold hold / icecap
XICEin_lv in_lv / icecap
XI0 net17 net13 hold reset in_lv_i in_lv_n vssa vdda vccd / 
+ sky130_fd_io__amuxsplitv2_switch_levelshifter
mI22 in_lv_n in_lv vssd vssd nshort m=1 w=1.00 l=0.25 mult=1 sa=265e-3 
+ sb=265e-3 sd=280e-3 topography=normal area=0.063 perim=1.14
mI21 in_lv_i in_lv_n vssd vssd nshort m=1 w=1.00 l=0.25 mult=1 sa=265e-3 
+ sb=265e-3 sd=280e-3 topography=normal area=0.063 perim=1.14
mI16 out_h net13 vssa vssa nhv m=1 w=1.00 l=0.60 mult=1 sa=265e-3 sb=265e-3 
+ sd=280e-3 topography=normal area=0.063 perim=1.14
mI20 in_lv_n in_lv vccd vccd phighvt m=1 w=1.00 l=0.25 mult=1 sa=265e-3 
+ sb=265e-3 sd=280e-3 topography=normal area=0.063 perim=1.14
mI19 in_lv_i in_lv_n vccd vccd phighvt m=1 w=1.00 l=0.25 mult=1 sa=265e-3 
+ sb=265e-3 sd=280e-3 topography=normal area=0.063 perim=1.14
mI15 out_h net13 vdda vdda phv m=1 w=3.00 l=0.60 mult=1 sa=265e-3 sb=265e-3 
+ sd=280e-3 topography=normal area=0.063 perim=1.14
.ENDS
.SUBCKT sky130_fd_io__amuxsplitv2_switch_sl hold in_lv out_h out_h_n reset vccd 
+ vdda vssa vssd vswitch
*.PININFO hold:I in_lv:I reset:I out_h:O out_h_n:O vccd:B vdda:B vssa:B vssd:B 
*.PININFO vswitch:B
XICEin_lv_i in_lv_i / icecap
XICEin_lv_n in_lv_n / icecap
XICEnet39 net39 / icecap
XICEhold hold / icecap
XICEout_h_n out_h_n / icecap
XICEout_h out_h / icecap
XICEnet48 net48 / icecap
XICEnet44 net44 / icecap
XICEin_lv in_lv / icecap
XICEnet35 net35 / icecap
XICEreset reset / icecap
mI14 out_h net44 vswitch vswitch phv m=1 w=3.00 l=0.60 mult=1 sa=265e-3 
+ sb=265e-3 sd=280e-3 topography=normal area=0.063 perim=1.14
mI15 out_h_n net39 vdda vdda phv m=1 w=3.00 l=0.60 mult=1 sa=265e-3 sb=265e-3 
+ sd=280e-3 topography=normal area=0.063 perim=1.14
mI19 in_lv_i in_lv_n vccd vccd phighvt m=1 w=1.00 l=0.25 mult=1 sa=265e-3 
+ sb=265e-3 sd=280e-3 topography=normal area=0.063 perim=1.14
mI20 in_lv_n in_lv vccd vccd phighvt m=1 w=1.00 l=0.25 mult=1 sa=265e-3 
+ sb=265e-3 sd=280e-3 topography=normal area=0.063 perim=1.14
mI13 out_h net44 vssa vssa nhv m=1 w=1.00 l=0.60 mult=1 sa=265e-3 sb=265e-3 
+ sd=280e-3 topography=normal area=0.063 perim=1.14
mI16 out_h_n net39 vssa vssa nhv m=1 w=1.00 l=0.60 mult=1 sa=265e-3 sb=265e-3 
+ sd=280e-3 topography=normal area=0.063 perim=1.14
mI21 in_lv_i in_lv_n vssd vssd nshort m=1 w=1.00 l=0.25 mult=1 sa=265e-3 
+ sb=265e-3 sd=280e-3 topography=normal area=0.063 perim=1.14
mI22 in_lv_n in_lv vssd vssd nshort m=1 w=1.00 l=0.25 mult=1 sa=265e-3 
+ sb=265e-3 sd=280e-3 topography=normal area=0.063 perim=1.14
XI0 net39 net35 hold reset in_lv_i in_lv_n vssa vdda vccd / 
+ sky130_fd_io__amuxsplitv2_switch_levelshifter
XI1 net48 net44 hold reset in_lv_i in_lv_n vssa vswitch vccd / 
+ sky130_fd_io__amuxsplitv2_switch_levelshifter
.ENDS
.SUBCKT s8_esd_res75only_small pad rout
*.PININFO pad:B rout:B
rI175 pad rout mrp1 m=1 w=2 l=3.15
.ENDS
.SUBCKT sky130_fd_io__amuxsplitv2_switch amuxbus_l amuxbus_r ngate_sl_h ngate_sr_h 
+ nmid_h pgate_sl_h_n pgate_sr_h_n vdda vssa
*.PININFO ngate_sl_h:I ngate_sr_h:I nmid_h:I pgate_sl_h_n:I pgate_sr_h_n:I 
*.PININFO amuxbus_l:B amuxbus_r:B vdda:B vssa:B
XICEpgate_sl_h_n pgate_sl_h_n / icecap
XICEpgate_sr_h_n pgate_sr_h_n / icecap
XICEnmid_h nmid_h / icecap
XICEngate_sl_h ngate_sl_h / icecap
XICEamuxbus_l amuxbus_l / icecap
XICEngate_sr_h ngate_sr_h / icecap
XICEnmid_h_s nmid_h_s / icecap
XICEamuxbus_r amuxbus_r / icecap
XICEmid mid / icecap
xI20 mid vdda condiode
xI19 vssa vdda condiode
XI18 vssa nmid_h_s / s8_esd_res75only_small
mI1 amuxbus_l ngate_sl_h mid mid nhv m=30 w=10.0 l=0.50 mult=1 sa=265e-3 
+ sb=265e-3 sd=280e-3 topography=normal area=0.063 perim=1.14
mI2 mid ngate_sr_h amuxbus_r mid nhv m=30 w=10.0 l=0.50 mult=1 sa=265e-3 
+ sb=265e-3 sd=280e-3 topography=normal area=0.063 perim=1.14
mI4 mid nmid_h nmid_h_s vssa nhv m=2 w=5.00 l=0.50 mult=1 sa=265e-3 sb=265e-3 
+ sd=280e-3 topography=normal area=0.063 perim=1.14
mI0 mid pgate_sl_h_n amuxbus_l vdda phv m=14 w=10.0 l=0.50 mult=1 sa=265e-3 
+ sb=265e-3 sd=280e-3 topography=normal area=0.063 perim=1.14
mI3 amuxbus_r pgate_sr_h_n mid vdda phv m=14 w=10.0 l=0.50 mult=1 sa=265e-3 
+ sb=265e-3 sd=280e-3 topography=normal area=0.063 perim=1.14
.ENDS
.SUBCKT sky130_fd_io__hvsbt_nand2 in0 in1 out vgnd vpwr
*.PININFO in0:I in1:I vgnd:I vpwr:I out:O
XICEout out / icecap
XICEin0 in0 / icecap
XICEin1 in1 / icecap
mI3 out in0 vpwr vpwr phv m=2 w=1.00 l=0.60 mult=1 sa=265e-3 sb=265e-3 
+ sd=280e-3 topography=normal area=0.063 perim=1.14
mI5 out in1 vpwr vpwr phv m=2 w=1.00 l=0.60 mult=1 sa=265e-3 sb=265e-3 
+ sd=280e-3 topography=normal area=0.063 perim=1.14
mI1 out in1 net25 vgnd nhv m=1 w=0.70 l=0.60 mult=1 sa=265e-3 sb=265e-3 
+ sd=280e-3 topography=normal area=0.063 perim=1.14
mI6 net25 in0 vgnd vgnd nhv m=1 w=0.70 l=0.60 mult=1 sa=265e-3 sb=265e-3 
+ sd=280e-3 topography=normal area=0.063 perim=1.14
.ENDS
.SUBCKT sky130_fd_io__amuxsplitv2_delay enable_vdda_h hld_vdda_h_n hold reset 
+ vcc_io vgnd
*.PININFO enable_vdda_h:I hld_vdda_h_n:I hold:O reset:O vcc_io:B vgnd:B
XICEhold hold / icecap
XICEhld_vdda_h hld_vdda_h / icecap
XICEreset reset / icecap
XICEenable_vdda_h_n enable_vdda_h_n / icecap
XICEenable_vdda_h enable_vdda_h / icecap
XICEhld_vdda_h_n_switch hld_vdda_h_n_switch / icecap
XICEhld_vdda_h_n hld_vdda_h_n / icecap
XICEenable_vdda_switch enable_vdda_switch / icecap
XI33 enable_vdda_switch hld_vdda_h_n_switch reset vgnd vcc_io / 
+ sky130_fd_io__hvsbt_nand2
mI29 hld_vdda_h_n_switch hld_vdda_h vcc_io vcc_io phv m=2 w=3.00 l=0.60 mult=1 
+ sa=265e-3 sb=265e-3 sd=280e-3 topography=normal area=0.063 perim=1.14
mI28 hld_vdda_h hld_vdda_h_n vcc_io vcc_io phv m=1 w=3.00 l=0.60 mult=1 
+ sa=265e-3 sb=265e-3 sd=280e-3 topography=normal area=0.063 perim=1.14
mI12 enable_vdda_switch enable_vdda_h_n vcc_io vcc_io phv m=2 w=3.00 l=0.60 
+ mult=1 sa=265e-3 sb=265e-3 sd=280e-3 topography=normal area=0.063 perim=1.14
mI13 enable_vdda_h_n enable_vdda_h vcc_io vcc_io phv m=1 w=3.00 l=0.60 mult=1 
+ sa=265e-3 sb=265e-3 sd=280e-3 topography=normal area=0.063 perim=1.14
mI36 hold reset vcc_io vcc_io phv m=1 w=3.00 l=0.60 mult=1 sa=265e-3 sb=265e-3 
+ sd=280e-3 topography=normal area=0.063 perim=1.14
mI31 hld_vdda_h_n_switch hld_vdda_h vgnd vgnd nhv m=2 w=1.00 l=0.60 mult=1 
+ sa=265e-3 sb=265e-3 sd=280e-3 topography=normal area=0.063 perim=1.14
mI30 hld_vdda_h hld_vdda_h_n vgnd vgnd nhv m=1 w=1.00 l=0.60 mult=1 sa=265e-3 
+ sb=265e-3 sd=280e-3 topography=normal area=0.063 perim=1.14
mI14 enable_vdda_switch enable_vdda_h_n vgnd vgnd nhv m=2 w=1.00 l=0.60 mult=1 
+ sa=265e-3 sb=265e-3 sd=280e-3 topography=normal area=0.063 perim=1.14
mI15 enable_vdda_h_n enable_vdda_h vgnd vgnd nhv m=1 w=1.00 l=0.60 mult=1 
+ sa=265e-3 sb=265e-3 sd=280e-3 topography=normal area=0.063 perim=1.14
mI37 hold reset vgnd vgnd nhv m=1 w=1.00 l=0.60 mult=1 sa=265e-3 sb=265e-3 
+ sd=280e-3 topography=normal area=0.063 perim=1.14
.ENDS
.SUBCKT sky130_fd_io__top_amuxsplitv2 amuxbus_a_l amuxbus_a_r amuxbus_b_l 
+ amuxbus_b_r enable_vdda_h hld_vdda_h_n switch_aa_s0 switch_aa_sl 
+ switch_aa_sr switch_bb_s0 switch_bb_sl switch_bb_sr vccd vcchib vdda vddio 
+ vddio_q vssa vssd vssio vssio_q vswitch
*.PININFO enable_vdda_h:I hld_vdda_h_n:I switch_aa_s0:I switch_aa_sl:I 
*.PININFO switch_aa_sr:I switch_bb_s0:I switch_bb_sl:I switch_bb_sr:I 
*.PININFO amuxbus_a_l:B amuxbus_a_r:B amuxbus_b_l:B amuxbus_b_r:B vccd:B 
*.PININFO vcchib:B vdda:B vddio:B vddio_q:B vssa:B vssd:B vssio:B vssio_q:B 
*.PININFO vswitch:B
xI22 vssa vdda condiode
XI18 hold switch_aa_s0 ng_vdda_aa_s0_h reset vccd vdda vssa vssd / 
+ sky130_fd_io__amuxsplitv2_switch_s0
XI348 hold switch_bb_s0 ng_vdda_bb_s0_h reset vccd vdda vssa vssd / 
+ sky130_fd_io__amuxsplitv2_switch_s0
XI347 hold switch_aa_sl ng_vswitch_aa_sl_h pg_vdda_aa_sl_h_n reset vccd vdda 
+ vssa vssd vswitch / sky130_fd_io__amuxsplitv2_switch_sl
XI24 hold switch_aa_sr ng_vswitch_aa_sr_h pg_vdda_aa_sr_h_n reset vccd vdda 
+ vssa vssd vswitch / sky130_fd_io__amuxsplitv2_switch_sl
XI349 hold switch_bb_sr ng_vswitch_bb_sr_h pg_vdda_bb_sr_h_n reset vccd vdda 
+ vssa vssd vswitch / sky130_fd_io__amuxsplitv2_switch_sl
XI350 hold switch_bb_sl ng_vswitch_bb_sl_h pg_vdda_bb_sl_h_n reset vccd vdda 
+ vssa vssd vswitch / sky130_fd_io__amuxsplitv2_switch_sl
XI6 amuxbus_a_l amuxbus_a_r ng_vswitch_aa_sl_h ng_vswitch_aa_sr_h 
+ ng_vdda_aa_s0_h pg_vdda_aa_sl_h_n pg_vdda_aa_sr_h_n vdda vssa / 
+ sky130_fd_io__amuxsplitv2_switch
XI8 amuxbus_b_l amuxbus_b_r ng_vswitch_bb_sl_h ng_vswitch_bb_sr_h 
+ ng_vdda_bb_s0_h pg_vdda_bb_sl_h_n pg_vdda_bb_sr_h_n vdda vssa / 
+ sky130_fd_io__amuxsplitv2_switch
XI342 enable_vdda_h hld_vdda_h_n hold reset vdda vssa / 
+ sky130_fd_io__amuxsplitv2_delay
XICEnet27 enable_vdda_h / icecap
XICEamuxbus_b_r amuxbus_b_r / icecap
XICEswitch_aa_sl_h ng_vswitch_aa_sl_h / icecap
XICEamuxbus_a_l amuxbus_a_l / icecap
XICEswitch_bb_sl_h_n pg_vdda_bb_sl_h_n / icecap
XICEswitch_bb_sr_h ng_vswitch_bb_sr_h / icecap
XICEswitch_aa_s0_h ng_vdda_aa_s0_h / icecap
XICEswitch_aa_s0 hold / icecap
XICEswitch_aa_sr_h ng_vswitch_aa_sr_h / icecap
XICEswitch_aa_sl_h_n pg_vdda_aa_sl_h_n / icecap
XICEswitch_bb_sl_h ng_vswitch_bb_sl_h / icecap
XICEswitch_bb_s0_h ng_vdda_bb_s0_h / icecap
XICEswitch_bb_sr_h_n pg_vdda_bb_sr_h_n / icecap
XICEswitch_aa_sr_h_n pg_vdda_aa_sr_h_n / icecap
XI355 hold / icecap
.ENDS
.SUBCKT sky130_fd_io__gpio_ovtv2_hotswap_nonoverlap_leak_fix p1g p1gb p2g padlo 
+ vgnd vpwr
*.PININFO padlo:I vgnd:I vpwr:I p1g:O p1gb:O p2g:O
XICEpadlo_bar padlo_bar / icecap
XICEp2gb p2gb / icecap
XICEp1gb p1gb / icecap
XICEp2g p2g / icecap
XICEp1g_new p1g_new / icecap
XICEp1g p1g / icecap
XICEpadlo padlo / icecap
XICEp2g_new p2g_new / icecap
mI76 p1g p1gb vpwr vpwr phv m=2 w=3.00 l=0.60 mult=1 sa=265e-3 sb=265e-3 
+ sd=280e-3 topography=normal area=0.063 perim=1.14
mI64 p1g_new padlo vpwr vpwr phv m=2 w=3.00 l=1.00 mult=1 sa=265e-3 sb=265e-3 
+ sd=280e-3 topography=normal area=0.063 perim=1.14
mI53 padlo_bar padlo vpwr vpwr phv m=2 w=1.00 l=0.60 mult=1 sa=265e-3 
+ sb=265e-3 sd=280e-3 topography=normal area=0.063 perim=1.14
mI50 p2g_new p1g_new vpwr vpwr phv m=2 w=3.00 l=1.00 mult=1 sa=265e-3 
+ sb=265e-3 sd=280e-3 topography=normal area=0.063 perim=1.14
mI49 p2g_new padlo_bar vpwr vpwr phv m=2 w=3.00 l=1.00 mult=1 sa=265e-3 
+ sb=265e-3 sd=280e-3 topography=normal area=0.063 perim=1.14
mI65 p1g_new p2g_new vpwr vpwr phv m=2 w=3.00 l=1.00 mult=1 sa=265e-3 
+ sb=265e-3 sd=280e-3 topography=normal area=0.063 perim=1.14
mI77 p2g p2gb vpwr vpwr phv m=1 w=3.00 l=0.60 mult=1 sa=265e-3 sb=265e-3 
+ sd=280e-3 topography=normal area=0.063 perim=1.14
mI70 p2gb p2g_new vpwr vpwr phv m=1 w=0.70 l=0.60 mult=1 sa=265e-3 sb=265e-3 
+ sd=280e-3 topography=normal area=0.063 perim=1.14
mI72 p1gb p1g_new vpwr vpwr phv m=1 w=0.70 l=0.60 mult=1 sa=265e-3 sb=265e-3 
+ sd=280e-3 topography=normal area=0.063 perim=1.14
mI54 padlo_bar padlo vgnd vgnd nhv m=1 w=1.00 l=0.60 mult=1 sa=265e-3 
+ sb=265e-3 sd=280e-3 topography=normal area=0.063 perim=1.14
mI69 p1g_new padlo net140 vgnd nhv m=1 w=1.00 l=4.00 mult=1 sa=265e-3 
+ sb=265e-3 sd=280e-3 topography=normal area=0.063 perim=1.14
mI78 p2g p2gb vgnd vgnd nhv m=2 w=0.42 l=2.00 mult=1 sa=265e-3 sb=265e-3 
+ sd=280e-3 topography=normal area=0.063 perim=1.14
mI67 net140 p2g_new vgnd vgnd nhv m=1 w=1.00 l=8.00 mult=1 sa=265e-3 sb=265e-3 
+ sd=280e-3 topography=normal area=0.063 perim=1.14
mI71 p2gb p2g_new vgnd vgnd nhv m=1 w=3.00 l=0.60 mult=1 sa=265e-3 sb=265e-3 
+ sd=280e-3 topography=normal area=0.063 perim=1.14
mI79 p1g p1gb vgnd vgnd nhv m=1 w=0.42 l=2.00 mult=1 sa=265e-3 sb=265e-3 
+ sd=280e-3 topography=normal area=0.063 perim=1.14
mI51 p2g_new padlo_bar net124 vgnd nhv m=1 w=1.00 l=4.00 mult=1 sa=265e-3 
+ sb=265e-3 sd=280e-3 topography=normal area=0.063 perim=1.14
mI73 p1gb p1g_new vgnd vgnd nhv m=1 w=3.00 l=0.60 mult=1 sa=265e-3 sb=265e-3 
+ sd=280e-3 topography=normal area=0.063 perim=1.14
mI52 net124 p1g_new vgnd vgnd nhv m=1 w=1.00 l=8.00 mult=1 sa=265e-3 sb=265e-3 
+ sd=280e-3 topography=normal area=0.063 perim=1.14
.ENDS
.SUBCKT sky130_fd_io__gpio_ovtv2_hotswap_pug_ovtfix padlo pug4_h pug7_h tie_hi 
+ vpb_drvr
*.PININFO padlo:I tie_hi:I vpb_drvr:I pug4_h:O pug7_h:O
mI52 pug4_h padlo tie_hi vpb_drvr phv m=1 w=15.0 l=0.50 mult=1 sa=1.825 
+ sb=1.825 sd=280e-3 topography=normal area=0.063 perim=1.14
mI53 pug7_h padlo tie_hi vpb_drvr phv m=1 w=15.0 l=0.50 mult=1 sa=265e-3 
+ sb=265e-3 sd=280e-3 topography=normal area=0.063 perim=1.14
.ENDS
.SUBCKT sky130_fd_io__sio_hvsbt_nand2 in0 in1 out vgnd vnb vpb vpwr
*.PININFO in0:I in1:I vgnd:I vnb:I vpb:I vpwr:I out:O
XICEout out / icecap
XICEin1 in1 / icecap
XICEin0 in0 / icecap
mI3 out in0 vpwr vpb phv m=1 w=3.00 l=0.60 mult=1 sa=265e-3 sb=265e-3 
+ sd=280e-3 topography=normal area=0.063 perim=1.14
mI5 out in1 vpwr vpb phv m=1 w=3.00 l=0.60 mult=1 sa=265e-3 sb=265e-3 
+ sd=280e-3 topography=normal area=0.063 perim=1.14
mI1 out in1 net25 vnb nhv m=1 w=1.00 l=0.60 mult=1 sa=265e-3 sb=265e-3 
+ sd=280e-3 topography=normal area=0.063 perim=1.14
mI6 net25 in0 vgnd vnb nhv m=1 w=1.00 l=0.60 mult=1 sa=265e-3 sb=265e-3 
+ sd=280e-3 topography=normal area=0.063 perim=1.14
.ENDS
.SUBCKT sky130_fd_io__sio_hvsbt_inv_x1 in out vgnd vnb vpb vpwr
*.PININFO in:I vgnd:I vnb:I vpb:I vpwr:I out:O
XICEout out / icecap
XICEin in / icecap
mI2 out in vgnd vnb nhv m=1 w=1.00 l=0.60 mult=1 sa=265e-3 sb=265e-3 sd=280e-3 
+ topography=normal area=0.063 perim=1.14
mI1 out in vpwr vpb phv m=1 w=3.00 l=0.60 mult=1 sa=265e-3 sb=265e-3 sd=280e-3 
+ topography=normal area=0.063 perim=1.14
.ENDS
.SUBCKT sky130_fd_io__sio_hvsbt_nor in0 in1 out vgnd vnb vpb vpwr
*.PININFO in0:I in1:I vgnd:I vnb:I vpb:I vpwr:I out:O
XICEin0 in0 / icecap
XICEin1 in1 / icecap
XICEout out / icecap
mI3 net17 in0 vpwr vpb phv m=1 w=3.00 l=0.60 mult=1 sa=265e-3 sb=265e-3 
+ sd=280e-3 topography=normal area=0.063 perim=1.14
mI12 out in1 net17 vpb phv m=1 w=3.00 l=0.60 mult=1 sa=265e-3 sb=265e-3 
+ sd=280e-3 topography=normal area=0.063 perim=1.14
mI1 out in0 vgnd vnb nhv m=1 w=1.00 l=0.60 mult=1 sa=265e-3 sb=265e-3 
+ sd=280e-3 topography=normal area=0.063 perim=1.14
mI6 out in1 vgnd vnb nhv m=1 w=1.00 l=0.60 mult=1 sa=265e-3 sb=265e-3 
+ sd=280e-3 topography=normal area=0.063 perim=1.14
.ENDS
.SUBCKT sky130_fd_io__tk_em1o a b
*.PININFO a:B b:B
rI1 a net11 short
rI2 b net7 short
.ENDS
.SUBCKT sky130_fd_io__tk_em1s a b
*.PININFO a:B b:B
rI1 a net8 short
rI2 b net8 short
.ENDS
.SUBCKT sky130_fd_io__sio_hotswap_dly in out out_n vcc_io vgnd
*.PININFO in:I vcc_io:I vgnd:I out:O out_n:O
XICEa5 a5 / icecap
XICEa3 a3 / icecap
XICEout out / icecap
XICEa2 a2 / icecap
XICEa7 a7 / icecap
XICEout_n out_n / icecap
XICEa4 a4 / icecap
XICEa6 a6 / icecap
XICEa1 a1 / icecap
XICEin in / icecap
XI228 out_n a5 / sky130_fd_io__tk_em1o
XI229 out_n a7 / sky130_fd_io__tk_em1o
XI227 a6 out / sky130_fd_io__tk_em1o
XI214 out_n a1 / sky130_fd_io__tk_em1o
XI215 a2 out / sky130_fd_io__tk_em1o
XEdly0 in out / sky130_fd_io__tk_em1o
XI217 out_n a3 / sky130_fd_io__tk_em1s
XEdly2 a4 out / sky130_fd_io__tk_em1s
mI196 a1 in vgnd vgnd nhv m=1 w=1.00 l=0.60 mult=1 sa=265e-3 sb=265e-3 
+ sd=280e-3 topography=normal area=0.063 perim=1.14
mI204 a4 a3 vgnd vgnd nhv m=1 w=0.42 l=1.00 mult=1 sa=265e-3 sb=265e-3 
+ sd=280e-3 topography=normal area=0.063 perim=1.14
mI199 a2 a1 vgnd vgnd nhv m=1 w=0.42 l=1.00 mult=1 sa=265e-3 sb=265e-3 
+ sd=280e-3 topography=normal area=0.063 perim=1.14
mI198 a3 a2 vgnd vgnd nhv m=1 w=1.00 l=0.60 mult=1 sa=265e-3 sb=265e-3 
+ sd=280e-3 topography=normal area=0.063 perim=1.14
mI232 a5 a4 vgnd vgnd nhv m=1 w=1.00 l=0.60 mult=1 sa=265e-3 sb=265e-3 
+ sd=280e-3 topography=normal area=0.063 perim=1.14
mI231 a6 a5 vgnd vgnd nhv m=1 w=0.42 l=1.00 mult=1 sa=265e-3 sb=265e-3 
+ sd=280e-3 topography=normal area=0.063 perim=1.14
mI230 a7 a6 vgnd vgnd nhv m=1 w=1.00 l=0.60 mult=1 sa=265e-3 sb=265e-3 
+ sd=280e-3 topography=normal area=0.063 perim=1.14
mI197 a1 in vcc_io vcc_io phv m=1 w=0.42 l=1.00 mult=1 sa=265e-3 sb=265e-3 
+ sd=280e-3 topography=normal area=0.063 perim=1.14
mI202 a4 a3 vcc_io vcc_io phv m=1 w=1.00 l=0.60 mult=1 sa=265e-3 sb=265e-3 
+ sd=280e-3 topography=normal area=0.063 perim=1.14
mI201 a2 a1 vcc_io vcc_io phv m=1 w=1.00 l=0.60 mult=1 sa=265e-3 sb=265e-3 
+ sd=280e-3 topography=normal area=0.063 perim=1.14
mI200 a3 a2 vcc_io vcc_io phv m=1 w=0.42 l=1.00 mult=1 sa=265e-3 sb=265e-3 
+ sd=280e-3 topography=normal area=0.063 perim=1.14
mI235 a5 a4 vcc_io vcc_io phv m=1 w=0.42 l=1.00 mult=1 sa=265e-3 sb=265e-3 
+ sd=280e-3 topography=normal area=0.063 perim=1.14
mI234 a6 a5 vcc_io vcc_io phv m=1 w=1.00 l=0.60 mult=1 sa=265e-3 sb=265e-3 
+ sd=280e-3 topography=normal area=0.063 perim=1.14
mI233 a7 a6 vcc_io vcc_io phv m=1 w=0.42 l=1.00 mult=1 sa=265e-3 sb=265e-3 
+ sd=280e-3 topography=normal area=0.063 perim=1.14
.ENDS
.SUBCKT sky130_fd_io__sio_hotswap_log_i2c_fix dishs_h dishs_h_n en_h enhs_h 
+ enhs_h_n enhs_lat_h_n exiths_h forcehi_h<1> od_i_h_n vcc_io vgnd
*.PININFO en_h:I enhs_lat_h_n:I forcehi_h<1>:I od_i_h_n:I vcc_io:I vgnd:I 
*.PININFO dishs_h:O dishs_h_n:O enhs_h:O enhs_h_n:O exiths_h:O
XICEdishs_h_n dishs_h_n / icecap
XICEnet39 net39 / icecap
XICEdishs_h dishs_h / icecap
XICEnet74 net74 / icecap
XICEod_i_h_n od_i_h_n / icecap
XICEen_h en_h / icecap
XICEenhs_dly_h_n enhs_dly_h_n / icecap
XICEenhs_h_n enhs_h_n / icecap
XICEnet46 net46 / icecap
XICEnet80 net80 / icecap
XICEforcehi_h<1> forcehi_h<1> / icecap
XICEenhs_dly_h enhs_dly_h / icecap
XICEexiths_h exiths_h / icecap
XICEenhs_lat_h_n enhs_lat_h_n / icecap
XICEenhs_h enhs_h / icecap
XI664 net39 net46 dishs_h vgnd vgnd vcc_io vcc_io / sky130_fd_io__sio_hvsbt_nand2
XI663 net80 forcehi_h<1> net46 vgnd vgnd vcc_io vcc_io / 
+ sky130_fd_io__sio_hvsbt_nand2
XI662 od_i_h_n en_h net39 vgnd vgnd vcc_io vcc_io / sky130_fd_io__sio_hvsbt_nand2
XI658 od_i_h_n net80 vgnd vgnd vcc_io vcc_io / sky130_fd_io__sio_hvsbt_inv_x1
XI666 enhs_lat_h_n net74 vgnd vgnd vcc_io vcc_io / sky130_fd_io__sio_hvsbt_inv_x1
XI565 net74 enhs_h_n vgnd vgnd vcc_io vcc_io / sky130_fd_io__sio_hvsbt_inv_x1
XI667 dishs_h dishs_h_n vgnd vgnd vcc_io vcc_io / sky130_fd_io__sio_hvsbt_inv_x1
XI637 enhs_h_n enhs_h vgnd vgnd vcc_io vcc_io / sky130_fd_io__sio_hvsbt_inv_x1
XI553 net74 enhs_dly_h_n exiths_h vgnd vgnd vcc_io vcc_io / 
+ sky130_fd_io__sio_hvsbt_nor
XI521 net74 enhs_dly_h enhs_dly_h_n vcc_io vgnd / sky130_fd_io__sio_hotswap_dly
.ENDS
.SUBCKT sky130_fd_io__sio_hotswap_hys in out vcc_io vgnd
*.PININFO in:I vcc_io:I vgnd:I out:O
XICEvcc_io_buf vcc_io_buf / icecap
XICEout out / icecap
XICEvgnd_buf vgnd_buf / icecap
XICEin in / icecap
XICEint_p int_p / icecap
XICEint_n int_n / icecap
mI650 vcc_io_buf out int_n vgnd nhv m=1 w=0.42 l=0.50 mult=1 sa=265e-3 
+ sb=265e-3 sd=280e-3 topography=normal area=0.063 perim=1.14
mI649 int_n in vgnd vgnd nhv m=1 w=0.42 l=0.50 mult=1 sa=265e-3 sb=265e-3 
+ sd=280e-3 topography=normal area=0.063 perim=1.14
mI648 out in int_n vgnd nhv m=2 w=0.42 l=0.50 mult=1 sa=265e-3 sb=265e-3 
+ sd=280e-3 topography=normal area=0.063 perim=1.14
mI655 vgnd_buf vcc_io vgnd vgnd nhv m=1 w=1.00 l=0.50 mult=1 sa=265e-3 
+ sb=265e-3 sd=280e-3 topography=normal area=0.063 perim=1.14
mI647 vgnd_buf out int_p vcc_io phv m=1 w=1.50 l=0.50 mult=1 sa=265e-3 
+ sb=265e-3 sd=280e-3 topography=normal area=0.063 perim=1.14
mI656 vcc_io_buf vgnd vcc_io vcc_io phv m=1 w=1.00 l=0.50 mult=1 sa=265e-3 
+ sb=265e-3 sd=280e-3 topography=normal area=0.063 perim=1.14
mI646 out in int_p vcc_io phv m=2 w=1.50 l=0.50 mult=1 sa=265e-3 sb=265e-3 
+ sd=280e-3 topography=normal area=0.063 perim=1.14
mI645 int_p in vcc_io vcc_io phv m=1 w=1.50 l=0.50 mult=1 sa=265e-3 sb=265e-3 
+ sd=280e-3 topography=normal area=0.063 perim=1.14
.ENDS
.SUBCKT sky130_fd_io__sio_hotswap_pghspd in1 in2 out vgnd
*.PININFO in1:I in2:I vgnd:I out:O
XICEin2 in2 / icecap
XICEnet25 net25 / icecap
XICEnet34 net34 / icecap
XICEnet27 net27 / icecap
XICEnet30 net30 / icecap
XICEnet42 net42 / icecap
XICEin1 in1 / icecap
XICEout out / icecap
XICEnet38 net38 / icecap
XEin2b vgnd net25 / sky130_fd_io__tk_em1o
XEoutb net38 out / sky130_fd_io__tk_em1o
XEin1b vgnd net27 / sky130_fd_io__tk_em1o
XEin1a in1 net27 / sky130_fd_io__tk_em1s
XEouta net42 out / sky130_fd_io__tk_em1s
XEin2a in2 net25 / sky130_fd_io__tk_em1s
mI481 net50 in2 vgnd vgnd nhv m=1 w=3.00 l=0.50 mult=1 sa=265e-3 sb=265e-3 
+ sd=280e-3 topography=normal area=0.063 perim=1.14
mI507 out in1 net50 vgnd nhv m=1 w=3.00 l=0.50 mult=1 sa=265e-3 sb=265e-3 
+ sd=280e-3 topography=normal area=0.063 perim=1.14
mI651 net42 net27 net34 vgnd nhv m=6 w=3.00 l=0.50 mult=1 sa=265e-3 sb=265e-3 
+ sd=280e-3 topography=normal area=0.063 perim=1.14
mI654 net38 net27 net30 vgnd nhv m=2 w=3.00 l=0.50 mult=1 sa=265e-3 sb=265e-3 
+ sd=280e-3 topography=normal area=0.063 perim=1.14
mI652 net34 net25 vgnd vgnd nhv m=6 w=3.00 l=0.50 mult=1 sa=265e-3 sb=265e-3 
+ sd=280e-3 topography=normal area=0.063 perim=1.14
mI653 net30 net25 vgnd vgnd nhv m=2 w=3.00 l=0.50 mult=1 sa=265e-3 sb=265e-3 
+ sd=280e-3 topography=normal area=0.063 perim=1.14
.ENDS
.SUBCKT sky130_fd_io__sio_hotswap_wpd en out vgnd
*.PININFO en:I vgnd:I out:O
XICEout out / icecap
XICEnpd<17> npd<17> / icecap
XICEen en / icecap
XICEnpd<14> npd<14> / icecap
XICEnpd<15> npd<15> / icecap
XICEnpd<18> npd<18> / icecap
XICEnpd<16> npd<16> / icecap
XI198 npd<15> npd<16> / sky130_fd_io__tk_em1o
XI209 vgnd npd<14> / sky130_fd_io__tk_em1o
XI196 npd<17> npd<18> / sky130_fd_io__tk_em1o
XI197 npd<16> npd<17> / sky130_fd_io__tk_em1o
XE20 npd<18> out / sky130_fd_io__tk_em1o
XI208 npd<14> npd<15> / sky130_fd_io__tk_em1o
mnen17 npd<17> en npd<16> vgnd nhv m=1 w=0.42 l=8.00 mult=1 sa=265e-3 
+ sb=265e-3 sd=280e-3 topography=normal area=0.063 perim=1.14
mnen15 npd<15> en npd<14> vgnd nhv m=1 w=0.42 l=8.00 mult=1 sa=265e-3 
+ sb=265e-3 sd=280e-3 topography=normal area=0.063 perim=1.14
mnen14 npd<14> en vgnd vgnd nhv m=1 w=0.42 l=8.00 mult=1 sa=265e-3 sb=265e-3 
+ sd=280e-3 topography=normal area=0.063 perim=1.14
mnen16 npd<16> en npd<15> vgnd nhv m=1 w=0.42 l=8.00 mult=1 sa=265e-3 
+ sb=265e-3 sd=280e-3 topography=normal area=0.063 perim=1.14
mnen19 out en npd<18> vgnd nhv m=1 w=0.42 l=8.00 mult=1 sa=265e-3 sb=265e-3 
+ sd=280e-3 topography=normal area=0.063 perim=1.14
mnen18 npd<18> en npd<17> vgnd nhv m=1 w=0.42 l=8.00 mult=1 sa=265e-3 
+ sb=265e-3 sd=280e-3 topography=normal area=0.063 perim=1.14
.ENDS
.SUBCKT sky130_fd_io__gpio_ovtv2_hotswap_latch dishs_h dishs_h_n enhs_h enhs_h_n 
+ enhs_lat_h_n enhs_lathys_h_n exiths_h p3out pad_esd pghs_h vcc_io vgnd 
+ vpb_drvr vpwr_ka
*.PININFO dishs_h:I dishs_h_n:I enhs_h:I enhs_h_n:I exiths_h:I pad_esd:I 
*.PININFO vcc_io:I vgnd:I vpb_drvr:I vpwr_ka:I enhs_lat_h_n:O 
*.PININFO enhs_lathys_h_n:O p3out:O pghs_h:B
XI660 vgnd net102 vgnd vgnd vcc_io vcc_io / sky130_fd_io__sio_hvsbt_inv_x1
XI528 n6 net96 vgnd vgnd vcc_io vcc_io / sky130_fd_io__sio_hvsbt_inv_x1
XEhys2 enhs_lathys_h_n enhs_lat_h_n / sky130_fd_io__tk_em1o
XI658 net96 enhs_lat_h_n / sky130_fd_io__tk_em1s
XEhys1 net117 enhs_lathys_h_n / sky130_fd_io__tk_em1s
Xhys n6 net117 vcc_io vgnd / sky130_fd_io__sio_hotswap_hys
Xpghspd enhs_h n2 pghs_h vgnd / sky130_fd_io__sio_hotswap_pghspd
Xwpdenhs vpwr_ka net127 vgnd / sky130_fd_io__sio_hotswap_wpd
Xwpdexhs vpwr_ka net124 vgnd / sky130_fd_io__sio_hotswap_wpd
mI502 net186 pghs_h vgnd vgnd nhv m=1 w=3.00 l=0.50 mult=1 sa=265e-3 sb=265e-3 
+ sd=280e-3 topography=normal area=0.063 perim=1.14
mI484 net161 enhs_h pghs_h vgnd nhv m=1 w=3.00 l=0.50 mult=1 sa=265e-3 
+ sb=265e-3 sd=280e-3 topography=normal area=0.063 perim=1.14
mI491 n5 n6 vgnd vgnd nhv m=1 w=0.42 l=1.00 mult=1 sa=265e-3 sb=265e-3 
+ sd=280e-3 topography=normal area=0.063 perim=1.14
mI498 n2 n6 net124 vgnd nhv m=1 w=3.00 l=0.60 mult=1 sa=265e-3 sb=265e-3 
+ sd=280e-3 topography=normal area=0.063 perim=1.14
mI500 net170 enhs_h_n n2 vgnd nhv m=1 w=3.00 l=0.50 mult=1 sa=265e-3 sb=265e-3 
+ sd=280e-3 topography=normal area=0.063 perim=1.14
mnexiths pghs_h exiths_h vgnd vgnd nhv m=2 w=3.00 l=0.50 mult=1 sa=265e-3 
+ sb=265e-3 sd=280e-3 topography=normal area=0.063 perim=1.14
mI485 n3 n2 net161 vgnd nhv m=1 w=3.00 l=0.50 mult=1 sa=265e-3 sb=265e-3 
+ sd=280e-3 topography=normal area=0.063 perim=1.14
mI499 n4 pghs_h net170 vgnd nhv m=1 w=3.00 l=0.50 mult=1 sa=265e-3 sb=265e-3 
+ sd=280e-3 topography=normal area=0.063 perim=1.14
mI497 n6 n5 vgnd vgnd nhv m=1 w=0.42 l=1.00 mult=1 sa=265e-3 sb=265e-3 
+ sd=280e-3 topography=normal area=0.063 perim=1.14
mndishs pghs_h dishs_h vgnd vgnd nhv m=2 w=3.00 l=0.50 mult=1 sa=265e-3 
+ sb=265e-3 sd=280e-3 topography=normal area=0.063 perim=1.14
mI508 n2 enhs_h_n net186 vgnd nhv m=1 w=3.00 l=0.50 mult=1 sa=265e-3 sb=265e-3 
+ sd=280e-3 topography=normal area=0.063 perim=1.14
mI696 vgnd exiths_h vgnd vgnd nhv m=2 w=3.00 l=0.50 mult=1 sa=265e-3 sb=265e-3 
+ sd=280e-3 topography=normal area=0.063 perim=1.14
mI487 pghs_h n5 net127 vgnd nhv m=1 w=3.00 l=0.60 mult=1 sa=265e-3 sb=265e-3 
+ sd=280e-3 topography=normal area=0.063 perim=1.14
mI697 vgnd dishs_h vgnd vgnd nhv m=2 w=3.00 l=0.50 mult=1 sa=265e-3 sb=265e-3 
+ sd=280e-3 topography=normal area=0.063 perim=1.14
mI492 n5 n6 vcc_io vcc_io phv m=1 w=0.42 l=1.00 mult=1 sa=265e-3 sb=265e-3 
+ sd=280e-3 topography=normal area=0.063 perim=1.14
mI503 n4 vgnd vcc_io vcc_io phv m=1 w=0.42 l=2.00 mult=1 sa=265e-3 sb=265e-3 
+ sd=280e-3 topography=normal area=0.063 perim=1.14
mI488 n3 vgnd vcc_io vcc_io phv m=1 w=0.42 l=2.00 mult=1 sa=265e-3 sb=265e-3 
+ sd=280e-3 topography=normal area=0.063 perim=1.14
mI505 n6 n5 vcc_io vcc_io phv m=1 w=0.42 l=1.00 mult=1 sa=265e-3 sb=265e-3 
+ sd=280e-3 topography=normal area=0.063 perim=1.14
mI493 n5 n3 vcc_io vcc_io phv m=2 w=3.00 l=0.50 mult=1 sa=265e-3 sb=265e-3 
+ sd=280e-3 topography=normal area=0.063 perim=1.14
mI323 n2 dishs_h_n vcc_io vcc_io phv m=4 w=3.00 l=0.50 mult=1 sa=265e-3 
+ sb=265e-3 sd=280e-3 topography=normal area=0.063 perim=1.14
mI279 n2 pad_esd vcc_io vcc_io phv m=4 w=3.00 l=0.50 mult=1 sa=265e-3 
+ sb=265e-3 sd=280e-3 topography=normal area=0.063 perim=1.14
mI504 n6 n4 vcc_io vcc_io phv m=2 w=3.00 l=0.50 mult=1 sa=265e-3 sb=265e-3 
+ sd=280e-3 topography=normal area=0.063 perim=1.14
mI689 p3out pad_esd vcc_io vpb_drvr phv m=12 w=10.0 l=0.50 mult=1 sa=265e-3 
+ sb=265e-3 sd=280e-3 topography=normal area=0.063 perim=1.14
.ENDS
.SUBCKT sky130_fd_io__gpio_ovtv2_hotswap_ctl_i2c_fix en_h enhs_lat_h_n forcehi_h<1> 
+ od_i_h_n p3out pad_esd pghs_h vddio vpb_drvr vpwr_ka vssd
*.PININFO en_h:I forcehi_h<1>:I od_i_h_n:I pad_esd:I vddio:I vpb_drvr:I 
*.PININFO vpwr_ka:I vssd:I enhs_lat_h_n:O p3out:O pghs_h:B
XICEvpb_drvr vpb_drvr / icecap
XICEpghs_h pghs_h / icecap
XICEforcehi_h<1> forcehi_h<1> / icecap
XICEdishs_h dishs_h / icecap
XICEdishs_h_n dishs_h_n / icecap
XICEpad_esd pad_esd / icecap
XICEenhs_lathys_h_n enhs_lathys_h_n / icecap
XICEp3out p3out / icecap
XICEen_h en_h / icecap
XICEenhs_h_n enhs_h_n / icecap
XICEod_i_h_n od_i_h_n / icecap
XICEenhs_h enhs_h / icecap
XICEenhs_lat_h_n enhs_lat_h_n / icecap
XICEexiths_h exiths_h / icecap
Xhslog dishs_h dishs_h_n en_h enhs_h enhs_h_n enhs_lathys_h_n exiths_h 
+ forcehi_h<1> od_i_h_n vddio vssd / sky130_fd_io__sio_hotswap_log_i2c_fix
Xhslatch dishs_h dishs_h_n enhs_h enhs_h_n enhs_lat_h_n enhs_lathys_h_n 
+ exiths_h p3out pad_esd pghs_h vddio vssd vpb_drvr vpwr_ka / 
+ sky130_fd_io__gpio_ovtv2_hotswap_latch
.ENDS
.SUBCKT sky130_fd_io__sio_tk_em1s a b
*.PININFO a:B b:B
rI1 a net8 short
rI2 b net8 short
.ENDS
.SUBCKT sky130_fd_io__sio_tk_em1o a b
*.PININFO a:B b:B
rI1 a net11 short
rI2 b net7 short
.ENDS
.SUBCKT sky130_fd_io__sio_hvsbt_inv_x4 in out vgnd vnb vpb vpwr
*.PININFO in:I vgnd:I vnb:I vpb:I vpwr:I out:O
XICEout out / icecap
XICEin in / icecap
mI2 out in vgnd vnb nhv m=4 w=1.00 l=0.60 mult=1 sa=265e-3 sb=265e-3 sd=280e-3 
+ topography=normal area=0.063 perim=1.14
mI1 out in vpwr vpb phv m=4 w=3.00 l=0.60 mult=1 sa=265e-3 sb=265e-3 sd=280e-3 
+ topography=normal area=0.063 perim=1.14
.ENDS