* NGSPICE file created from decred_controller.ext - technology: sky130A

* Black-box entry subcircuit for sky130_fd_sc_hd__nand4_4 abstract view
.subckt sky130_fd_sc_hd__nand4_4 A B C D VGND VNB VPB VPWR Y
.ends

* Black-box entry subcircuit for sky130_fd_sc_hd__decap_6 abstract view
.subckt sky130_fd_sc_hd__decap_6 VGND VNB VPB VPWR
.ends

* Black-box entry subcircuit for sky130_fd_sc_hd__or2_4 abstract view
.subckt sky130_fd_sc_hd__or2_4 A B VGND VNB VPB VPWR X
.ends

* Black-box entry subcircuit for sky130_fd_sc_hd__fill_1 abstract view
.subckt sky130_fd_sc_hd__fill_1 VGND VNB VPB VPWR
.ends

* Black-box entry subcircuit for sky130_fd_sc_hd__decap_4 abstract view
.subckt sky130_fd_sc_hd__decap_4 VGND VNB VPB VPWR
.ends

* Black-box entry subcircuit for sky130_fd_sc_hd__decap_3 abstract view
.subckt sky130_fd_sc_hd__decap_3 VGND VNB VPB VPWR
.ends

* Black-box entry subcircuit for sky130_fd_sc_hd__buf_2 abstract view
.subckt sky130_fd_sc_hd__buf_2 A VGND VNB VPB VPWR X
.ends

* Black-box entry subcircuit for sky130_fd_sc_hd__decap_8 abstract view
.subckt sky130_fd_sc_hd__decap_8 VGND VNB VPB VPWR
.ends

* Black-box entry subcircuit for sky130_fd_sc_hd__nor2_4 abstract view
.subckt sky130_fd_sc_hd__nor2_4 A B VGND VNB VPB VPWR Y
.ends

* Black-box entry subcircuit for sky130_fd_sc_hd__a21o_4 abstract view
.subckt sky130_fd_sc_hd__a21o_4 A1 A2 B1 VGND VNB VPB VPWR X
.ends

* Black-box entry subcircuit for sky130_fd_sc_hd__dfxtp_4 abstract view
.subckt sky130_fd_sc_hd__dfxtp_4 CLK D VGND VNB VPB VPWR Q
.ends

* Black-box entry subcircuit for sky130_fd_sc_hd__inv_2 abstract view
.subckt sky130_fd_sc_hd__inv_2 A VGND VNB VPB VPWR Y
.ends

* Black-box entry subcircuit for sky130_fd_sc_hd__nand3_4 abstract view
.subckt sky130_fd_sc_hd__nand3_4 A B C VGND VNB VPB VPWR Y
.ends

* Black-box entry subcircuit for sky130_fd_sc_hd__clkbuf_1 abstract view
.subckt sky130_fd_sc_hd__clkbuf_1 A VGND VNB VPB VPWR X
.ends

* Black-box entry subcircuit for sky130_fd_sc_hd__decap_12 abstract view
.subckt sky130_fd_sc_hd__decap_12 VGND VNB VPB VPWR
.ends

* Black-box entry subcircuit for sky130_fd_sc_hd__diode_2 abstract view
.subckt sky130_fd_sc_hd__diode_2 DIODE VGND VNB VPB VPWR
.ends

* Black-box entry subcircuit for sky130_fd_sc_hd__fill_2 abstract view
.subckt sky130_fd_sc_hd__fill_2 VGND VNB VPB VPWR
.ends

* Black-box entry subcircuit for sky130_fd_sc_hd__and2_4 abstract view
.subckt sky130_fd_sc_hd__and2_4 A B VGND VNB VPB VPWR X
.ends

* Black-box entry subcircuit for sky130_fd_sc_hd__nand2_4 abstract view
.subckt sky130_fd_sc_hd__nand2_4 A B VGND VNB VPB VPWR Y
.ends

* Black-box entry subcircuit for sky130_fd_sc_hd__o21ai_4 abstract view
.subckt sky130_fd_sc_hd__o21ai_4 A1 A2 B1 VGND VNB VPB VPWR Y
.ends

* Black-box entry subcircuit for sky130_fd_sc_hd__and4_4 abstract view
.subckt sky130_fd_sc_hd__and4_4 A B C D VGND VNB VPB VPWR X
.ends

* Black-box entry subcircuit for sky130_fd_sc_hd__clkbuf_16 abstract view
.subckt sky130_fd_sc_hd__clkbuf_16 A VGND VNB VPB VPWR X
.ends

* Black-box entry subcircuit for sky130_fd_sc_hd__o32ai_4 abstract view
.subckt sky130_fd_sc_hd__o32ai_4 A1 A2 A3 B1 B2 VGND VNB VPB VPWR Y
.ends

* Black-box entry subcircuit for sky130_fd_sc_hd__tapvpwrvgnd_1 abstract view
.subckt sky130_fd_sc_hd__tapvpwrvgnd_1 VGND VPWR
.ends

* Black-box entry subcircuit for sky130_fd_sc_hd__a21oi_4 abstract view
.subckt sky130_fd_sc_hd__a21oi_4 A1 A2 B1 VGND VNB VPB VPWR Y
.ends

* Black-box entry subcircuit for sky130_fd_sc_hd__nor3_4 abstract view
.subckt sky130_fd_sc_hd__nor3_4 A B C VGND VNB VPB VPWR Y
.ends

* Black-box entry subcircuit for sky130_fd_sc_hd__xor2_4 abstract view
.subckt sky130_fd_sc_hd__xor2_4 A B VGND VNB VPB VPWR X
.ends

* Black-box entry subcircuit for sky130_fd_sc_hd__a211o_4 abstract view
.subckt sky130_fd_sc_hd__a211o_4 A1 A2 B1 C1 VGND VNB VPB VPWR X
.ends

* Black-box entry subcircuit for sky130_fd_sc_hd__o21a_4 abstract view
.subckt sky130_fd_sc_hd__o21a_4 A1 A2 B1 VGND VNB VPB VPWR X
.ends

* Black-box entry subcircuit for sky130_fd_sc_hd__a2bb2o_4 abstract view
.subckt sky130_fd_sc_hd__a2bb2o_4 A1_N A2_N B1 B2 VGND VNB VPB VPWR X
.ends

* Black-box entry subcircuit for sky130_fd_sc_hd__a41oi_4 abstract view
.subckt sky130_fd_sc_hd__a41oi_4 A1 A2 A3 A4 B1 VGND VNB VPB VPWR Y
.ends

* Black-box entry subcircuit for sky130_fd_sc_hd__or3_4 abstract view
.subckt sky130_fd_sc_hd__or3_4 A B C VGND VNB VPB VPWR X
.ends

* Black-box entry subcircuit for sky130_fd_sc_hd__nor4_4 abstract view
.subckt sky130_fd_sc_hd__nor4_4 A B C D VGND VNB VPB VPWR Y
.ends

* Black-box entry subcircuit for sky130_fd_sc_hd__a41o_4 abstract view
.subckt sky130_fd_sc_hd__a41o_4 A1 A2 A3 A4 B1 VGND VNB VPB VPWR X
.ends

* Black-box entry subcircuit for sky130_fd_sc_hd__o41ai_4 abstract view
.subckt sky130_fd_sc_hd__o41ai_4 A1 A2 A3 A4 B1 VGND VNB VPB VPWR Y
.ends

* Black-box entry subcircuit for sky130_fd_sc_hd__and3_4 abstract view
.subckt sky130_fd_sc_hd__and3_4 A B C VGND VNB VPB VPWR X
.ends

* Black-box entry subcircuit for sky130_fd_sc_hd__a22oi_4 abstract view
.subckt sky130_fd_sc_hd__a22oi_4 A1 A2 B1 B2 VGND VNB VPB VPWR Y
.ends

* Black-box entry subcircuit for sky130_fd_sc_hd__a2bb2oi_4 abstract view
.subckt sky130_fd_sc_hd__a2bb2oi_4 A1_N A2_N B1 B2 VGND VNB VPB VPWR Y
.ends

* Black-box entry subcircuit for sky130_fd_sc_hd__o41a_4 abstract view
.subckt sky130_fd_sc_hd__o41a_4 A1 A2 A3 A4 B1 VGND VNB VPB VPWR X
.ends

* Black-box entry subcircuit for sky130_fd_sc_hd__xnor2_4 abstract view
.subckt sky130_fd_sc_hd__xnor2_4 A B VGND VNB VPB VPWR Y
.ends

* Black-box entry subcircuit for sky130_fd_sc_hd__a32oi_4 abstract view
.subckt sky130_fd_sc_hd__a32oi_4 A1 A2 A3 B1 B2 VGND VNB VPB VPWR Y
.ends

* Black-box entry subcircuit for sky130_fd_sc_hd__or4_4 abstract view
.subckt sky130_fd_sc_hd__or4_4 A B C D VGND VNB VPB VPWR X
.ends

* Black-box entry subcircuit for sky130_fd_sc_hd__o22a_4 abstract view
.subckt sky130_fd_sc_hd__o22a_4 A1 A2 B1 B2 VGND VNB VPB VPWR X
.ends

* Black-box entry subcircuit for sky130_fd_sc_hd__a21boi_4 abstract view
.subckt sky130_fd_sc_hd__a21boi_4 A1 A2 B1_N VGND VNB VPB VPWR Y
.ends

* Black-box entry subcircuit for sky130_fd_sc_hd__conb_1 abstract view
.subckt sky130_fd_sc_hd__conb_1 VGND VNB VPB VPWR HI LO
.ends

* Black-box entry subcircuit for sky130_fd_sc_hd__a2111o_4 abstract view
.subckt sky130_fd_sc_hd__a2111o_4 A1 A2 B1 C1 D1 VGND VNB VPB VPWR X
.ends

.subckt decred_controller CLK_LED DATA_AVAILABLE[0] DATA_AVAILABLE[1] DATA_AVAILABLE[2]
+ DATA_AVAILABLE[3] DATA_FROM_HASH[0] DATA_FROM_HASH[1] DATA_FROM_HASH[2] DATA_FROM_HASH[3]
+ DATA_FROM_HASH[4] DATA_FROM_HASH[5] DATA_FROM_HASH[6] DATA_FROM_HASH[7] DATA_TO_HASH[0]
+ DATA_TO_HASH[1] DATA_TO_HASH[2] DATA_TO_HASH[3] DATA_TO_HASH[4] DATA_TO_HASH[5]
+ DATA_TO_HASH[6] DATA_TO_HASH[7] EXT_RESET_N_fromHost EXT_RESET_N_toClient HASH_ADDR[0]
+ HASH_ADDR[1] HASH_ADDR[2] HASH_ADDR[3] HASH_ADDR[4] HASH_ADDR[5] HASH_EN HASH_LED
+ ID_fromClient ID_toHost IRQ_OUT_fromClient IRQ_OUT_toHost M1_CLK_IN M1_CLK_SELECT
+ MACRO_RD_SELECT[0] MACRO_RD_SELECT[1] MACRO_RD_SELECT[2] MACRO_RD_SELECT[3] MACRO_WR_SELECT[0]
+ MACRO_WR_SELECT[1] MACRO_WR_SELECT[2] MACRO_WR_SELECT[3] MISO_fromClient MISO_toHost
+ MOSI_fromHost MOSI_toClient PLL_INPUT S1_CLK_IN S1_CLK_SELECT SCLK_fromHost SCLK_toClient
+ SCSN_fromHost SCSN_toClient THREAD_COUNT[0] THREAD_COUNT[1] THREAD_COUNT[2] THREAD_COUNT[3]
+ m1_clk_local one zero VPWR VGND
X_2037_ _2043_/C _2047_/A _2043_/D _2037_/D VGND VGND VPWR VPWR _2038_/B sky130_fd_sc_hd__nand4_4
XFILLER_39_299 VGND VGND VPWR VPWR sky130_fd_sc_hd__decap_6
X_2106_ _1222_/A SCSN_fromHost VGND VGND VPWR VPWR _2106_/X sky130_fd_sc_hd__or2_4
XFILLER_26_30 VGND VGND VPWR VPWR sky130_fd_sc_hd__fill_1
XFILLER_9_104 VGND VGND VPWR VPWR sky130_fd_sc_hd__fill_1
XFILLER_9_148 VGND VGND VPWR VPWR sky130_fd_sc_hd__decap_6
XFILLER_13_188 VGND VGND VPWR VPWR sky130_fd_sc_hd__decap_4
XFILLER_5_332 VGND VGND VPWR VPWR sky130_fd_sc_hd__decap_3
X_1270_ _1270_/A VGND VGND VPWR VPWR _2010_/B sky130_fd_sc_hd__buf_2
XFILLER_3_89 VGND VGND VPWR VPWR sky130_fd_sc_hd__fill_1
XFILLER_51_217 VGND VGND VPWR VPWR sky130_fd_sc_hd__decap_8
X_1606_ _1426_/A _1428_/D VGND VGND VPWR VPWR _1609_/B sky130_fd_sc_hd__nor2_4
XFILLER_8_192 VGND VGND VPWR VPWR sky130_fd_sc_hd__decap_4
X_1399_ _2618_/Q _1397_/Y _1398_/Y VGND VGND VPWR VPWR _1400_/A sky130_fd_sc_hd__a21o_4
XFILLER_47_29 VGND VGND VPWR VPWR sky130_fd_sc_hd__decap_4
X_1537_ _1424_/Y VGND VGND VPWR VPWR _1537_/X sky130_fd_sc_hd__buf_2
X_1468_ _1428_/Y VGND VGND VPWR VPWR _1548_/D sky130_fd_sc_hd__buf_2
X_2586_ _2606_/CLK _2586_/D VGND VGND VPWR VPWR _1459_/A sky130_fd_sc_hd__dfxtp_4
XFILLER_27_214 VGND VGND VPWR VPWR sky130_fd_sc_hd__decap_4
XFILLER_10_136 VGND VGND VPWR VPWR sky130_fd_sc_hd__decap_4
XFILLER_12_32 VGND VGND VPWR VPWR sky130_fd_sc_hd__decap_8
XFILLER_12_43 VGND VGND VPWR VPWR sky130_fd_sc_hd__decap_4
XFILLER_37_62 VGND VGND VPWR VPWR sky130_fd_sc_hd__decap_6
XFILLER_37_40 VGND VGND VPWR VPWR sky130_fd_sc_hd__decap_6
X_2440_ _2598_/CLK _2143_/Y VGND VGND VPWR VPWR _1964_/A sky130_fd_sc_hd__dfxtp_4
X_2371_ _2370_/CLK _2371_/D VGND VGND VPWR VPWR _2371_/Q sky130_fd_sc_hd__dfxtp_4
X_1253_ _2363_/Q VGND VGND VPWR VPWR _1374_/A sky130_fd_sc_hd__inv_2
X_1322_ _1239_/Y _1321_/X _1316_/D VGND VGND VPWR VPWR _1323_/A sky130_fd_sc_hd__nand3_4
Xclkbuf_1_0_0_m1_clk_local clkbuf_0_m1_clk_local/X VGND VGND VPWR VPWR clkbuf_2_1_0_m1_clk_local/A
+ sky130_fd_sc_hd__clkbuf_1
XFILLER_64_342 VGND VGND VPWR VPWR sky130_fd_sc_hd__decap_12
XFILLER_49_383 VGND VGND VPWR VPWR sky130_fd_sc_hd__fill_1
X_1184_ _1528_/A VGND VGND VPWR VPWR _1185_/A sky130_fd_sc_hd__buf_2
XFILLER_24_228 VGND VGND VPWR VPWR sky130_fd_sc_hd__decap_8
X_2569_ _2570_/CLK _2569_/D VGND VGND VPWR VPWR _1735_/D sky130_fd_sc_hd__dfxtp_4
X_2638_ _2638_/CLK _2638_/D VGND VGND VPWR VPWR _1295_/A sky130_fd_sc_hd__dfxtp_4
XINSDIODE2_4 _1955_/X VGND VGND VPWR VPWR sky130_fd_sc_hd__diode_2
XFILLER_2_187 VGND VGND VPWR VPWR sky130_fd_sc_hd__decap_8
XFILLER_2_143 VGND VGND VPWR VPWR sky130_fd_sc_hd__decap_8
XFILLER_64_60 VGND VGND VPWR VPWR sky130_fd_sc_hd__fill_2
XFILLER_48_83 VGND VGND VPWR VPWR sky130_fd_sc_hd__decap_8
XFILLER_46_353 VGND VGND VPWR VPWR sky130_fd_sc_hd__decap_8
XFILLER_0_57 VGND VGND VPWR VPWR sky130_fd_sc_hd__decap_4
X_1871_ _1870_/X DATA_FROM_HASH[7] VGND VGND VPWR VPWR _2566_/D sky130_fd_sc_hd__and2_4
X_1940_ _1938_/A _1746_/Y VGND VGND VPWR VPWR _1940_/Y sky130_fd_sc_hd__nor2_4
XFILLER_14_261 VGND VGND VPWR VPWR sky130_fd_sc_hd__fill_1
XFILLER_50_3 VGND VGND VPWR VPWR sky130_fd_sc_hd__decap_8
X_2423_ _2408_/CLK _2271_/Y VGND VGND VPWR VPWR _1746_/A sky130_fd_sc_hd__dfxtp_4
X_1236_ _1236_/A _2623_/Q VGND VGND VPWR VPWR _1237_/A sky130_fd_sc_hd__nand2_4
X_2354_ _2097_/B _1179_/A _2353_/X VGND VGND VPWR VPWR _2354_/Y sky130_fd_sc_hd__o21ai_4
X_1305_ _1318_/B _1308_/C _1243_/X _1246_/D VGND VGND VPWR VPWR _1305_/X sky130_fd_sc_hd__and4_4
Xclkbuf_0_m1_clk_local m1_clk_local VGND VGND VPWR VPWR clkbuf_0_m1_clk_local/X sky130_fd_sc_hd__clkbuf_16
X_2285_ _2276_/X _2253_/Y _2278_/X _1923_/Y _2280_/X VGND VGND VPWR VPWR _2285_/Y
+ sky130_fd_sc_hd__o32ai_4
XFILLER_64_183 VGND VGND VPWR VPWR sky130_fd_sc_hd__decap_3
XFILLER_20_253 VGND VGND VPWR VPWR sky130_fd_sc_hd__decap_4
XFILLER_43_301 VGND VGND VPWR VPWR sky130_fd_sc_hd__decap_4
XPHY_554 VGND VPWR sky130_fd_sc_hd__tapvpwrvgnd_1
XPHY_543 VGND VPWR sky130_fd_sc_hd__tapvpwrvgnd_1
XPHY_532 VGND VPWR sky130_fd_sc_hd__tapvpwrvgnd_1
XPHY_521 VGND VPWR sky130_fd_sc_hd__tapvpwrvgnd_1
XPHY_510 VGND VPWR sky130_fd_sc_hd__tapvpwrvgnd_1
XFILLER_43_367 VGND VGND VPWR VPWR sky130_fd_sc_hd__decap_4
XFILLER_34_74 VGND VGND VPWR VPWR sky130_fd_sc_hd__decap_4
XFILLER_59_60 VGND VGND VPWR VPWR sky130_fd_sc_hd__fill_1
Xclkbuf_3_3_0_m1_clk_local clkbuf_3_3_0_m1_clk_local/A VGND VGND VPWR VPWR clkbuf_4_7_0_m1_clk_local/A
+ sky130_fd_sc_hd__clkbuf_1
X_2070_ _2070_/A VGND VGND VPWR VPWR _2070_/Y sky130_fd_sc_hd__inv_2
XFILLER_38_128 VGND VGND VPWR VPWR sky130_fd_sc_hd__decap_8
X_1785_ _1783_/Y _1784_/Y _1781_/X VGND VGND VPWR VPWR _2588_/D sky130_fd_sc_hd__a21oi_4
X_1854_ _1854_/A _1640_/X VGND VGND VPWR VPWR _1854_/X sky130_fd_sc_hd__or2_4
X_1923_ _2151_/B VGND VGND VPWR VPWR _1923_/Y sky130_fd_sc_hd__inv_2
X_2406_ _2408_/CLK _2303_/Y VGND VGND VPWR VPWR HASH_LED sky130_fd_sc_hd__dfxtp_4
X_1219_ _2384_/Q VGND VGND VPWR VPWR _1219_/X sky130_fd_sc_hd__buf_2
X_2337_ _2337_/A _1575_/Y _1683_/Y VGND VGND VPWR VPWR _2338_/A sky130_fd_sc_hd__nand3_4
XFILLER_25_301 VGND VGND VPWR VPWR sky130_fd_sc_hd__decap_4
X_2199_ _1623_/Y _2428_/Q VGND VGND VPWR VPWR _2199_/Y sky130_fd_sc_hd__nand2_4
X_2268_ _2268_/A VGND VGND VPWR VPWR _2268_/Y sky130_fd_sc_hd__inv_2
XFILLER_52_164 VGND VGND VPWR VPWR sky130_fd_sc_hd__decap_6
XFILLER_25_367 VGND VGND VPWR VPWR sky130_fd_sc_hd__fill_1
XFILLER_25_345 VGND VGND VPWR VPWR sky130_fd_sc_hd__decap_4
XFILLER_29_30 VGND VGND VPWR VPWR sky130_fd_sc_hd__fill_2
XFILLER_45_84 VGND VGND VPWR VPWR sky130_fd_sc_hd__fill_1
XFILLER_45_62 VGND VGND VPWR VPWR sky130_fd_sc_hd__decap_4
XFILLER_43_164 VGND VGND VPWR VPWR sky130_fd_sc_hd__decap_6
XFILLER_31_315 VGND VGND VPWR VPWR sky130_fd_sc_hd__decap_6
XPHY_395 VGND VPWR sky130_fd_sc_hd__tapvpwrvgnd_1
XPHY_384 VGND VPWR sky130_fd_sc_hd__tapvpwrvgnd_1
XPHY_373 VGND VPWR sky130_fd_sc_hd__tapvpwrvgnd_1
XPHY_362 VGND VPWR sky130_fd_sc_hd__tapvpwrvgnd_1
XPHY_351 VGND VPWR sky130_fd_sc_hd__tapvpwrvgnd_1
XPHY_340 VGND VPWR sky130_fd_sc_hd__tapvpwrvgnd_1
X_1570_ _1570_/A VGND VGND VPWR VPWR _1571_/A sky130_fd_sc_hd__buf_2
X_2053_ _1992_/A _2060_/A _1992_/D VGND VGND VPWR VPWR _2053_/Y sky130_fd_sc_hd__nor3_4
X_2122_ _1874_/A _2121_/X _1420_/A VGND VGND VPWR VPWR _2122_/Y sky130_fd_sc_hd__nand3_4
XFILLER_19_161 VGND VGND VPWR VPWR sky130_fd_sc_hd__decap_4
XFILLER_19_194 VGND VGND VPWR VPWR sky130_fd_sc_hd__decap_4
XFILLER_22_315 VGND VGND VPWR VPWR sky130_fd_sc_hd__decap_4
XFILLER_22_337 VGND VGND VPWR VPWR sky130_fd_sc_hd__decap_6
XFILLER_22_359 VGND VGND VPWR VPWR sky130_fd_sc_hd__fill_1
X_1837_ _1836_/X VGND VGND VPWR VPWR _2570_/D sky130_fd_sc_hd__inv_2
X_1906_ _2154_/B VGND VGND VPWR VPWR _1906_/Y sky130_fd_sc_hd__inv_2
X_1768_ _1438_/B _1768_/B VGND VGND VPWR VPWR _1768_/X sky130_fd_sc_hd__xor2_4
XFILLER_57_201 VGND VGND VPWR VPWR sky130_fd_sc_hd__decap_4
X_1699_ _1693_/Y _1698_/Y _1454_/X VGND VGND VPWR VPWR _2594_/D sky130_fd_sc_hd__a21oi_4
XFILLER_57_267 VGND VGND VPWR VPWR sky130_fd_sc_hd__fill_1
XFILLER_13_304 VGND VGND VPWR VPWR sky130_fd_sc_hd__fill_1
XFILLER_40_145 VGND VGND VPWR VPWR sky130_fd_sc_hd__decap_8
XFILLER_31_53 VGND VGND VPWR VPWR sky130_fd_sc_hd__decap_8
XFILLER_13_337 VGND VGND VPWR VPWR sky130_fd_sc_hd__decap_4
XFILLER_0_274 VGND VGND VPWR VPWR sky130_fd_sc_hd__decap_4
XFILLER_31_145 VGND VGND VPWR VPWR sky130_fd_sc_hd__decap_4
XFILLER_31_123 VGND VGND VPWR VPWR sky130_fd_sc_hd__decap_8
XPHY_170 VGND VPWR sky130_fd_sc_hd__tapvpwrvgnd_1
X_1622_ _2426_/Q VGND VGND VPWR VPWR _1622_/Y sky130_fd_sc_hd__inv_2
XPHY_181 VGND VPWR sky130_fd_sc_hd__tapvpwrvgnd_1
XPHY_192 VGND VPWR sky130_fd_sc_hd__tapvpwrvgnd_1
XFILLER_8_363 VGND VGND VPWR VPWR sky130_fd_sc_hd__decap_4
XFILLER_12_392 VGND VGND VPWR VPWR sky130_fd_sc_hd__decap_4
XFILLER_39_201 VGND VGND VPWR VPWR sky130_fd_sc_hd__decap_4
X_1553_ _1490_/A _1527_/Y _1530_/Y _1552_/Y VGND VGND VPWR VPWR _1557_/A sky130_fd_sc_hd__a211o_4
X_1484_ _1484_/A VGND VGND VPWR VPWR _1505_/B sky130_fd_sc_hd__buf_2
X_2036_ _2037_/D _2035_/X _1374_/X VGND VGND VPWR VPWR _2038_/A sky130_fd_sc_hd__o21a_4
XFILLER_54_215 VGND VGND VPWR VPWR sky130_fd_sc_hd__decap_4
XFILLER_39_245 VGND VGND VPWR VPWR sky130_fd_sc_hd__fill_2
X_2105_ _1222_/A _2105_/B VGND VGND VPWR VPWR _2105_/X sky130_fd_sc_hd__or2_4
XFILLER_22_167 VGND VGND VPWR VPWR sky130_fd_sc_hd__decap_4
XFILLER_13_123 VGND VGND VPWR VPWR sky130_fd_sc_hd__decap_4
XFILLER_42_85 VGND VGND VPWR VPWR sky130_fd_sc_hd__decap_6
XFILLER_42_30 VGND VGND VPWR VPWR sky130_fd_sc_hd__fill_1
XFILLER_5_355 VGND VGND VPWR VPWR sky130_fd_sc_hd__decap_8
XFILLER_9_127 VGND VGND VPWR VPWR sky130_fd_sc_hd__fill_1
X_1605_ _1605_/A VGND VGND VPWR VPWR _1651_/A sky130_fd_sc_hd__buf_2
X_2585_ _2581_/CLK _1796_/X VGND VGND VPWR VPWR _1477_/A sky130_fd_sc_hd__dfxtp_4
X_1536_ _1525_/Y _1532_/Y _1535_/X VGND VGND VPWR VPWR _2604_/D sky130_fd_sc_hd__a21oi_4
X_1398_ _2618_/Q _1397_/Y _1374_/X VGND VGND VPWR VPWR _1398_/Y sky130_fd_sc_hd__o21ai_4
X_1467_ _2602_/Q VGND VGND VPWR VPWR _1467_/Y sky130_fd_sc_hd__inv_2
X_2019_ _1395_/A _2019_/B _2019_/C VGND VGND VPWR VPWR _2019_/Y sky130_fd_sc_hd__nor3_4
XFILLER_35_292 VGND VGND VPWR VPWR sky130_fd_sc_hd__decap_4
XFILLER_12_88 VGND VGND VPWR VPWR sky130_fd_sc_hd__decap_4
XFILLER_2_325 VGND VGND VPWR VPWR sky130_fd_sc_hd__decap_8
XFILLER_33_218 VGND VGND VPWR VPWR sky130_fd_sc_hd__fill_2
XFILLER_53_62 VGND VGND VPWR VPWR sky130_fd_sc_hd__decap_4
XFILLER_53_40 VGND VGND VPWR VPWR sky130_fd_sc_hd__decap_8
XFILLER_33_229 VGND VGND VPWR VPWR sky130_fd_sc_hd__decap_4
XFILLER_26_270 VGND VGND VPWR VPWR sky130_fd_sc_hd__decap_4
X_2370_ _2370_/CLK _2369_/Q VGND VGND VPWR VPWR _2371_/D sky130_fd_sc_hd__dfxtp_4
XFILLER_49_362 VGND VGND VPWR VPWR sky130_fd_sc_hd__decap_4
X_1321_ _1241_/Y VGND VGND VPWR VPWR _1321_/X sky130_fd_sc_hd__buf_2
X_1252_ _1271_/C _1251_/Y VGND VGND VPWR VPWR _1263_/A sky130_fd_sc_hd__nand2_4
XFILLER_64_398 VGND VGND VPWR VPWR sky130_fd_sc_hd__decap_4
X_1183_ _2353_/A _1179_/X _1182_/X VGND VGND VPWR VPWR _1183_/Y sky130_fd_sc_hd__o21ai_4
XFILLER_32_295 VGND VGND VPWR VPWR sky130_fd_sc_hd__decap_4
XFILLER_32_262 VGND VGND VPWR VPWR sky130_fd_sc_hd__decap_6
Xclkbuf_3_4_0_addressalyzerBlock.SPI_CLK clkbuf_3_5_0_addressalyzerBlock.SPI_CLK/A
+ VGND VGND VPWR VPWR clkbuf_4_9_0_addressalyzerBlock.SPI_CLK/A sky130_fd_sc_hd__clkbuf_1
XFILLER_20_402 VGND VGND VPWR VPWR sky130_fd_sc_hd__decap_4
XINSDIODE2_5 _1920_/X VGND VGND VPWR VPWR sky130_fd_sc_hd__diode_2
X_2499_ _2470_/CLK _1971_/X VGND VGND VPWR VPWR MACRO_WR_SELECT[0] sky130_fd_sc_hd__dfxtp_4
X_2568_ _2550_/CLK _2568_/D VGND VGND VPWR VPWR _1862_/B sky130_fd_sc_hd__dfxtp_4
X_2637_ _2477_/CLK _2637_/D VGND VGND VPWR VPWR _1299_/A sky130_fd_sc_hd__dfxtp_4
X_1519_ _1473_/B _1440_/B _1518_/Y VGND VGND VPWR VPWR _1519_/Y sky130_fd_sc_hd__o21ai_4
XFILLER_59_159 VGND VGND VPWR VPWR sky130_fd_sc_hd__fill_1
XFILLER_59_148 VGND VGND VPWR VPWR sky130_fd_sc_hd__decap_4
XFILLER_55_354 VGND VGND VPWR VPWR sky130_fd_sc_hd__fill_1
XFILLER_48_62 VGND VGND VPWR VPWR sky130_fd_sc_hd__decap_4
X_1870_ _1840_/B VGND VGND VPWR VPWR _1870_/X sky130_fd_sc_hd__buf_2
X_2353_ _2353_/A _1180_/Y VGND VGND VPWR VPWR _2353_/X sky130_fd_sc_hd__or2_4
XFILLER_43_3 VGND VGND VPWR VPWR sky130_fd_sc_hd__decap_4
X_2422_ _2408_/CLK _2422_/D VGND VGND VPWR VPWR _1941_/A sky130_fd_sc_hd__dfxtp_4
X_1235_ _1235_/A VGND VGND VPWR VPWR _1365_/D sky130_fd_sc_hd__inv_2
XFILLER_37_376 VGND VGND VPWR VPWR sky130_fd_sc_hd__decap_4
XFILLER_37_354 VGND VGND VPWR VPWR sky130_fd_sc_hd__fill_1
X_1304_ _2635_/Q VGND VGND VPWR VPWR _1308_/C sky130_fd_sc_hd__buf_2
X_2284_ _2276_/X _2133_/Y _2278_/X _1744_/B _2280_/X VGND VGND VPWR VPWR _2415_/D
+ sky130_fd_sc_hd__o32ai_4
XFILLER_20_210 VGND VGND VPWR VPWR sky130_fd_sc_hd__decap_4
X_1999_ _1999_/A _1999_/B _2011_/A _2492_/Q VGND VGND VPWR VPWR _2010_/C sky130_fd_sc_hd__nand4_4
XFILLER_20_298 VGND VGND VPWR VPWR sky130_fd_sc_hd__decap_4
XPHY_500 VGND VPWR sky130_fd_sc_hd__tapvpwrvgnd_1
XFILLER_28_332 VGND VGND VPWR VPWR sky130_fd_sc_hd__decap_4
XFILLER_18_87 VGND VGND VPWR VPWR sky130_fd_sc_hd__decap_4
XPHY_555 VGND VPWR sky130_fd_sc_hd__tapvpwrvgnd_1
XPHY_544 VGND VPWR sky130_fd_sc_hd__tapvpwrvgnd_1
XPHY_533 VGND VPWR sky130_fd_sc_hd__tapvpwrvgnd_1
XPHY_522 VGND VPWR sky130_fd_sc_hd__tapvpwrvgnd_1
XPHY_511 VGND VPWR sky130_fd_sc_hd__tapvpwrvgnd_1
XFILLER_50_41 VGND VGND VPWR VPWR sky130_fd_sc_hd__decap_4
XFILLER_7_258 VGND VGND VPWR VPWR sky130_fd_sc_hd__decap_4
XFILLER_19_332 VGND VGND VPWR VPWR sky130_fd_sc_hd__decap_4
X_1922_ _1932_/A _2537_/Q VGND VGND VPWR VPWR _2531_/D sky130_fd_sc_hd__and2_4
X_1784_ _1678_/Y _2349_/A VGND VGND VPWR VPWR _1784_/Y sky130_fd_sc_hd__nand2_4
X_1853_ _1850_/X _1852_/X _1471_/X VGND VGND VPWR VPWR _1853_/Y sky130_fd_sc_hd__a21oi_4
X_2336_ _1575_/Y _2328_/X _2335_/Y VGND VGND VPWR VPWR _2388_/D sky130_fd_sc_hd__o21ai_4
XFILLER_29_118 VGND VGND VPWR VPWR sky130_fd_sc_hd__decap_4
X_2405_ _2557_/CLK _2305_/Y VGND VGND VPWR VPWR _1232_/A sky130_fd_sc_hd__dfxtp_4
X_1218_ _1218_/A _1218_/B VGND VGND VPWR VPWR _1218_/Y sky130_fd_sc_hd__nand2_4
XFILLER_1_90 VGND VGND VPWR VPWR sky130_fd_sc_hd__decap_4
X_2267_ _2266_/Y _2262_/X _2258_/X _1937_/Y _2264_/X VGND VGND VPWR VPWR _2425_/D
+ sky130_fd_sc_hd__o32ai_4
X_2198_ _2196_/Y _1708_/X _2198_/C VGND VGND VPWR VPWR _2198_/Y sky130_fd_sc_hd__nand3_4
XFILLER_52_154 VGND VGND VPWR VPWR sky130_fd_sc_hd__fill_1
XFILLER_40_327 VGND VGND VPWR VPWR sky130_fd_sc_hd__fill_1
XFILLER_20_22 VGND VGND VPWR VPWR sky130_fd_sc_hd__fill_2
XFILLER_28_140 VGND VGND VPWR VPWR sky130_fd_sc_hd__decap_6
XFILLER_43_121 VGND VGND VPWR VPWR sky130_fd_sc_hd__fill_1
XPHY_352 VGND VPWR sky130_fd_sc_hd__tapvpwrvgnd_1
XPHY_341 VGND VPWR sky130_fd_sc_hd__tapvpwrvgnd_1
XPHY_330 VGND VPWR sky130_fd_sc_hd__tapvpwrvgnd_1
XFILLER_28_195 VGND VGND VPWR VPWR sky130_fd_sc_hd__decap_4
XFILLER_28_184 VGND VGND VPWR VPWR sky130_fd_sc_hd__decap_4
XFILLER_61_95 VGND VGND VPWR VPWR sky130_fd_sc_hd__decap_4
XPHY_396 VGND VPWR sky130_fd_sc_hd__tapvpwrvgnd_1
XPHY_385 VGND VPWR sky130_fd_sc_hd__tapvpwrvgnd_1
XPHY_374 VGND VPWR sky130_fd_sc_hd__tapvpwrvgnd_1
XPHY_363 VGND VPWR sky130_fd_sc_hd__tapvpwrvgnd_1
XFILLER_6_46 VGND VGND VPWR VPWR sky130_fd_sc_hd__decap_4
X_2052_ _2014_/X _2040_/X _2051_/Y VGND VGND VPWR VPWR _2052_/Y sky130_fd_sc_hd__a21oi_4
X_2121_ _1696_/A VGND VGND VPWR VPWR _2121_/X sky130_fd_sc_hd__buf_2
XFILLER_34_154 VGND VGND VPWR VPWR sky130_fd_sc_hd__decap_4
X_1905_ _1901_/X _1905_/B VGND VGND VPWR VPWR _1905_/Y sky130_fd_sc_hd__nor2_4
X_1836_ _1735_/C _1834_/Y _1835_/Y VGND VGND VPWR VPWR _1836_/X sky130_fd_sc_hd__a21o_4
X_1698_ _1698_/A _1697_/Y _1689_/Y _2340_/B VGND VGND VPWR VPWR _1698_/Y sky130_fd_sc_hd__nand4_4
XFILLER_30_393 VGND VGND VPWR VPWR sky130_fd_sc_hd__decap_4
X_1767_ _1483_/B _1767_/B VGND VGND VPWR VPWR _1767_/X sky130_fd_sc_hd__xor2_4
X_2319_ _1771_/Y _2310_/X _1503_/A _2312_/X VGND VGND VPWR VPWR _2319_/X sky130_fd_sc_hd__a2bb2o_4
XFILLER_63_238 VGND VGND VPWR VPWR sky130_fd_sc_hd__decap_6
XFILLER_56_51 VGND VGND VPWR VPWR sky130_fd_sc_hd__decap_4
XFILLER_16_110 VGND VGND VPWR VPWR sky130_fd_sc_hd__decap_8
XFILLER_31_179 VGND VGND VPWR VPWR sky130_fd_sc_hd__fill_1
XPHY_171 VGND VPWR sky130_fd_sc_hd__tapvpwrvgnd_1
XPHY_160 VGND VPWR sky130_fd_sc_hd__tapvpwrvgnd_1
XPHY_182 VGND VPWR sky130_fd_sc_hd__tapvpwrvgnd_1
XPHY_193 VGND VPWR sky130_fd_sc_hd__tapvpwrvgnd_1
XFILLER_12_371 VGND VGND VPWR VPWR sky130_fd_sc_hd__fill_1
XFILLER_16_154 VGND VGND VPWR VPWR sky130_fd_sc_hd__fill_1
X_1552_ _1537_/X _1548_/D _1544_/Y VGND VGND VPWR VPWR _1552_/Y sky130_fd_sc_hd__a21oi_4
XFILLER_8_386 VGND VGND VPWR VPWR sky130_fd_sc_hd__decap_8
X_1621_ _2410_/Q _2181_/A _1617_/Y _1620_/Y VGND VGND VPWR VPWR _1621_/X sky130_fd_sc_hd__a211o_4
X_2104_ _2104_/A _2091_/Y _2103_/Y _2468_/Q VGND VGND VPWR VPWR _2104_/X sky130_fd_sc_hd__and4_4
X_1483_ _1482_/Y _1483_/B _2604_/Q _2603_/Q VGND VGND VPWR VPWR _1484_/A sky130_fd_sc_hd__and4_4
X_2035_ _2029_/Y _2030_/X _2017_/B _2043_/D VGND VGND VPWR VPWR _2035_/X sky130_fd_sc_hd__and4_4
XFILLER_22_124 VGND VGND VPWR VPWR sky130_fd_sc_hd__decap_6
XFILLER_30_190 VGND VGND VPWR VPWR sky130_fd_sc_hd__decap_4
XFILLER_10_319 VGND VGND VPWR VPWR sky130_fd_sc_hd__decap_4
X_1819_ _2575_/Q _1809_/X _1818_/X VGND VGND VPWR VPWR _2576_/D sky130_fd_sc_hd__o21a_4
XFILLER_53_271 VGND VGND VPWR VPWR sky130_fd_sc_hd__decap_4
XFILLER_26_87 VGND VGND VPWR VPWR sky130_fd_sc_hd__decap_4
XFILLER_26_54 VGND VGND VPWR VPWR sky130_fd_sc_hd__decap_4
XFILLER_13_179 VGND VGND VPWR VPWR sky130_fd_sc_hd__decap_4
XFILLER_5_301 VGND VGND VPWR VPWR sky130_fd_sc_hd__decap_4
XFILLER_44_271 VGND VGND VPWR VPWR sky130_fd_sc_hd__decap_4
XFILLER_12_190 VGND VGND VPWR VPWR sky130_fd_sc_hd__decap_6
X_1604_ _1559_/B _2600_/Q VGND VGND VPWR VPWR _1605_/A sky130_fd_sc_hd__and2_4
X_1535_ _1556_/A _1534_/X _1500_/X VGND VGND VPWR VPWR _1535_/X sky130_fd_sc_hd__a21o_4
X_2584_ _2606_/CLK _1798_/X VGND VGND VPWR VPWR _1490_/A sky130_fd_sc_hd__dfxtp_4
X_1397_ _1397_/A _1397_/B _1397_/C VGND VGND VPWR VPWR _1397_/Y sky130_fd_sc_hd__nor3_4
X_1466_ _1466_/A VGND VGND VPWR VPWR _1466_/Y sky130_fd_sc_hd__inv_2
XFILLER_63_19 VGND VGND VPWR VPWR sky130_fd_sc_hd__decap_4
X_2018_ _2488_/Q _2017_/X _1984_/A _1999_/A _2011_/A VGND VGND VPWR VPWR _2019_/C
+ sky130_fd_sc_hd__a41oi_4
XFILLER_42_208 VGND VGND VPWR VPWR sky130_fd_sc_hd__decap_6
XFILLER_10_149 VGND VGND VPWR VPWR sky130_fd_sc_hd__decap_4
XFILLER_12_78 VGND VGND VPWR VPWR sky130_fd_sc_hd__fill_1
XFILLER_58_341 VGND VGND VPWR VPWR sky130_fd_sc_hd__decap_4
XFILLER_2_337 VGND VGND VPWR VPWR sky130_fd_sc_hd__decap_6
XFILLER_58_352 VGND VGND VPWR VPWR sky130_fd_sc_hd__decap_4
XFILLER_18_205 VGND VGND VPWR VPWR sky130_fd_sc_hd__decap_8
X_1320_ _1319_/Y VGND VGND VPWR VPWR _2634_/D sky130_fd_sc_hd__inv_2
XFILLER_64_333 VGND VGND VPWR VPWR sky130_fd_sc_hd__decap_8
XFILLER_64_311 VGND VGND VPWR VPWR sky130_fd_sc_hd__fill_1
X_1182_ _1182_/A _1194_/B VGND VGND VPWR VPWR _1182_/X sky130_fd_sc_hd__or2_4
X_1251_ _1251_/A VGND VGND VPWR VPWR _1251_/Y sky130_fd_sc_hd__inv_2
XFILLER_17_271 VGND VGND VPWR VPWR sky130_fd_sc_hd__decap_4
X_2636_ _2477_/CLK _2636_/D VGND VGND VPWR VPWR _2636_/Q sky130_fd_sc_hd__dfxtp_4
X_2498_ _2498_/CLK _2498_/D VGND VGND VPWR VPWR _1973_/A sky130_fd_sc_hd__dfxtp_4
XFILLER_59_127 VGND VGND VPWR VPWR sky130_fd_sc_hd__decap_4
X_2567_ _2498_/CLK _1869_/Y VGND VGND VPWR VPWR _2567_/Q sky130_fd_sc_hd__dfxtp_4
X_1518_ _1473_/B _1482_/Y _1473_/C _1466_/A _2340_/C VGND VGND VPWR VPWR _1518_/Y
+ sky130_fd_sc_hd__a41oi_4
X_1449_ _1441_/Y _1449_/B VGND VGND VPWR VPWR _1449_/Y sky130_fd_sc_hd__nand2_4
XFILLER_15_208 VGND VGND VPWR VPWR sky130_fd_sc_hd__decap_8
XFILLER_23_274 VGND VGND VPWR VPWR sky130_fd_sc_hd__decap_6
XFILLER_11_403 VGND VGND VPWR VPWR sky130_fd_sc_hd__decap_4
XFILLER_23_22 VGND VGND VPWR VPWR sky130_fd_sc_hd__fill_1
XFILLER_23_66 VGND VGND VPWR VPWR sky130_fd_sc_hd__decap_6
XFILLER_3_3 VGND VGND VPWR VPWR sky130_fd_sc_hd__decap_3
XFILLER_2_112 VGND VGND VPWR VPWR sky130_fd_sc_hd__decap_4
XFILLER_58_160 VGND VGND VPWR VPWR sky130_fd_sc_hd__decap_4
XFILLER_48_30 VGND VGND VPWR VPWR sky130_fd_sc_hd__fill_1
XFILLER_2_167 VGND VGND VPWR VPWR sky130_fd_sc_hd__fill_1
XFILLER_61_325 VGND VGND VPWR VPWR sky130_fd_sc_hd__fill_2
XFILLER_9_35 VGND VGND VPWR VPWR sky130_fd_sc_hd__decap_4
XFILLER_9_57 VGND VGND VPWR VPWR sky130_fd_sc_hd__decap_4
X_2352_ _2543_/Q _2544_/Q _2352_/C VGND VGND VPWR VPWR IRQ_OUT_toHost sky130_fd_sc_hd__or3_4
X_1303_ _1258_/Y VGND VGND VPWR VPWR _1318_/B sky130_fd_sc_hd__buf_2
XFILLER_36_3 VGND VGND VPWR VPWR sky130_fd_sc_hd__decap_4
X_2283_ _2276_/X _2130_/Y _2278_/X _1845_/B _2280_/X VGND VGND VPWR VPWR _2416_/D
+ sky130_fd_sc_hd__o32ai_4
X_2421_ _2408_/CLK _2421_/D VGND VGND VPWR VPWR _1944_/A sky130_fd_sc_hd__dfxtp_4
XFILLER_52_325 VGND VGND VPWR VPWR sky130_fd_sc_hd__decap_8
X_1234_ _1385_/A _2621_/Q VGND VGND VPWR VPWR _1235_/A sky130_fd_sc_hd__nand2_4
XFILLER_37_399 VGND VGND VPWR VPWR sky130_fd_sc_hd__decap_8
X_1998_ _1998_/A _2008_/A VGND VGND VPWR VPWR _1999_/B sky130_fd_sc_hd__nor2_4
X_2619_ _2370_/CLK _1395_/Y VGND VGND VPWR VPWR _2619_/Q sky130_fd_sc_hd__dfxtp_4
XFILLER_18_22 VGND VGND VPWR VPWR sky130_fd_sc_hd__decap_8
XPHY_534 VGND VPWR sky130_fd_sc_hd__tapvpwrvgnd_1
XPHY_523 VGND VPWR sky130_fd_sc_hd__tapvpwrvgnd_1
XPHY_512 VGND VPWR sky130_fd_sc_hd__tapvpwrvgnd_1
XPHY_501 VGND VPWR sky130_fd_sc_hd__tapvpwrvgnd_1
XFILLER_55_196 VGND VGND VPWR VPWR sky130_fd_sc_hd__decap_4
XFILLER_43_314 VGND VGND VPWR VPWR sky130_fd_sc_hd__decap_4
XFILLER_34_32 VGND VGND VPWR VPWR sky130_fd_sc_hd__fill_1
XPHY_556 VGND VPWR sky130_fd_sc_hd__tapvpwrvgnd_1
XPHY_545 VGND VPWR sky130_fd_sc_hd__tapvpwrvgnd_1
XFILLER_51_380 VGND VGND VPWR VPWR sky130_fd_sc_hd__decap_4
XFILLER_11_222 VGND VGND VPWR VPWR sky130_fd_sc_hd__fill_2
XFILLER_59_62 VGND VGND VPWR VPWR sky130_fd_sc_hd__decap_3
XFILLER_50_97 VGND VGND VPWR VPWR sky130_fd_sc_hd__decap_4
XFILLER_19_377 VGND VGND VPWR VPWR sky130_fd_sc_hd__decap_4
XFILLER_42_391 VGND VGND VPWR VPWR sky130_fd_sc_hd__decap_6
X_1921_ _1254_/X VGND VGND VPWR VPWR _1932_/A sky130_fd_sc_hd__buf_2
X_1852_ _2444_/Q _1751_/A _1633_/X _1851_/Y VGND VGND VPWR VPWR _1852_/X sky130_fd_sc_hd__a211o_4
X_1783_ _1678_/A _1783_/B _1779_/C _1783_/D VGND VGND VPWR VPWR _1783_/Y sky130_fd_sc_hd__nand4_4
X_2335_ _2335_/A _2335_/B _1218_/B _1577_/X VGND VGND VPWR VPWR _2335_/Y sky130_fd_sc_hd__nand4_4
X_2266_ _2266_/A VGND VGND VPWR VPWR _2266_/Y sky130_fd_sc_hd__inv_2
X_2404_ _2408_/CLK _2307_/Y VGND VGND VPWR VPWR _2404_/Q sky130_fd_sc_hd__dfxtp_4
XFILLER_25_358 VGND VGND VPWR VPWR sky130_fd_sc_hd__decap_8
XFILLER_25_325 VGND VGND VPWR VPWR sky130_fd_sc_hd__fill_1
X_1217_ _1185_/A VGND VGND VPWR VPWR _1218_/B sky130_fd_sc_hd__buf_2
X_2197_ _2404_/Q _2175_/B VGND VGND VPWR VPWR _2198_/C sky130_fd_sc_hd__nand2_4
XFILLER_4_218 VGND VGND VPWR VPWR sky130_fd_sc_hd__decap_4
XFILLER_48_406 VGND VGND VPWR VPWR sky130_fd_sc_hd__fill_1
XFILLER_29_65 VGND VGND VPWR VPWR sky130_fd_sc_hd__decap_4
XFILLER_61_30 VGND VGND VPWR VPWR sky130_fd_sc_hd__decap_8
XFILLER_45_53 VGND VGND VPWR VPWR sky130_fd_sc_hd__fill_1
XPHY_386 VGND VPWR sky130_fd_sc_hd__tapvpwrvgnd_1
XPHY_375 VGND VPWR sky130_fd_sc_hd__tapvpwrvgnd_1
XPHY_364 VGND VPWR sky130_fd_sc_hd__tapvpwrvgnd_1
XPHY_353 VGND VPWR sky130_fd_sc_hd__tapvpwrvgnd_1
XFILLER_31_339 VGND VGND VPWR VPWR sky130_fd_sc_hd__decap_4
XPHY_342 VGND VPWR sky130_fd_sc_hd__tapvpwrvgnd_1
XPHY_331 VGND VPWR sky130_fd_sc_hd__tapvpwrvgnd_1
XPHY_320 VGND VPWR sky130_fd_sc_hd__tapvpwrvgnd_1
XFILLER_16_369 VGND VGND VPWR VPWR sky130_fd_sc_hd__decap_4