.subckt decred_hash_macro CLK DATA_AVAILABLE DATA_FROM_HASH[0] DATA_FROM_HASH[1] DATA_FROM_HASH[2]
+ DATA_FROM_HASH[3] DATA_FROM_HASH[4] DATA_FROM_HASH[5] DATA_FROM_HASH[6] DATA_FROM_HASH[7]
+ DATA_TO_HASH[0] DATA_TO_HASH[1] DATA_TO_HASH[2] DATA_TO_HASH[3] DATA_TO_HASH[4]
+ DATA_TO_HASH[5] DATA_TO_HASH[6] DATA_TO_HASH[7] HASH_ADDR[0] HASH_ADDR[1] HASH_ADDR[2]
+ HASH_ADDR[3] HASH_ADDR[4] HASH_ADDR[5] HASH_EN MACRO_RD_SELECT MACRO_WR_SELECT THREAD_COUNT[0]
+ THREAD_COUNT[1] THREAD_COUNT[2] THREAD_COUNT[3] VPWR VGND
X_48709_ _46423_/X _82338_/Q _48708_/X _48874_/B sky130_fd_sc_hd__o21ai_4
X_67543_ _67522_/X _67532_/Y _67507_/X _67542_/Y _67543_/X sky130_fd_sc_hd__a211o_4
X_79529_ _79528_/Y _79529_/B _79529_/Y sky130_fd_sc_hd__nand2_4
X_64755_ _64883_/A _64755_/B _64755_/X sky130_fd_sc_hd__and2_4
X_61967_ _61510_/X _61933_/X _61967_/C _61952_/D _61967_/Y sky130_fd_sc_hd__nand4_4
X_49689_ _49688_/X _49699_/A sky130_fd_sc_hd__buf_2
X_51720_ _52688_/A _52605_/A sky130_fd_sc_hd__buf_2
X_63706_ _63697_/A _64544_/C _63458_/A _63706_/X sky130_fd_sc_hd__and3_4
X_82540_ _82553_/CLK _82540_/D _82540_/Q sky130_fd_sc_hd__dfxtp_4
X_60918_ _64172_/C _60918_/X sky130_fd_sc_hd__buf_2
X_67474_ _67497_/A _87661_/Q _67474_/X sky130_fd_sc_hd__and2_4
X_64686_ _64682_/X _64937_/B _64685_/X _64686_/Y sky130_fd_sc_hd__nand3_4
X_61898_ _61820_/A _61960_/B sky130_fd_sc_hd__buf_2
X_69213_ _68507_/X _68511_/X _69212_/X _69213_/Y sky130_fd_sc_hd__a21oi_4
X_66425_ _84126_/Q _65296_/X _66424_/Y _66425_/X sky130_fd_sc_hd__a21o_4
X_51651_ _51629_/X _51651_/B _51651_/C _53177_/D _51651_/X sky130_fd_sc_hd__and4_4
X_63637_ _63634_/Y _63635_/X _63636_/Y _63637_/Y sky130_fd_sc_hd__a21oi_4
X_82471_ _82589_/CLK _82471_/D _78296_/B sky130_fd_sc_hd__dfxtp_4
X_60849_ _60844_/X _60857_/D _60909_/A sky130_fd_sc_hd__and2_4
X_84210_ _84210_/CLK _84210_/D _84210_/Q sky130_fd_sc_hd__dfxtp_4
X_50602_ _50598_/Y _50577_/X _50601_/Y _86170_/D sky130_fd_sc_hd__a21boi_4
X_81422_ _81333_/CLK _81454_/Q _76013_/B sky130_fd_sc_hd__dfxtp_4
X_69144_ _68929_/X _68357_/Y _69095_/X _69143_/Y _69144_/X sky130_fd_sc_hd__a211o_4
X_54370_ _85454_/Q _54349_/X _54369_/Y _54370_/Y sky130_fd_sc_hd__o21ai_4
X_66356_ _66104_/A _66367_/B sky130_fd_sc_hd__buf_2
X_85190_ _85190_/CLK _56447_/Y _85190_/Q sky130_fd_sc_hd__dfxtp_4
X_51582_ _51590_/A _53109_/B _51582_/Y sky130_fd_sc_hd__nand2_4
X_63568_ _63566_/Y _63516_/X _63567_/Y _84313_/D sky130_fd_sc_hd__a21oi_4
X_53321_ _53347_/A _53330_/B sky130_fd_sc_hd__buf_2
X_65307_ _65307_/A _65833_/B sky130_fd_sc_hd__buf_2
X_84141_ _84175_/CLK _84141_/D _66319_/C sky130_fd_sc_hd__dfxtp_4
X_50533_ _50506_/A _50533_/X sky130_fd_sc_hd__buf_2
X_62519_ _59951_/B _62198_/Y _62520_/A sky130_fd_sc_hd__and2_4
X_81353_ _81351_/CLK _76707_/X _81353_/Q sky130_fd_sc_hd__dfxtp_4
X_69075_ _69071_/X _69074_/X _60014_/X _69075_/Y sky130_fd_sc_hd__a21oi_4
X_66287_ _66284_/X _66286_/X _65937_/X _66287_/X sky130_fd_sc_hd__a21o_4
X_63499_ _58546_/Y _63497_/X _61468_/A _63498_/X _63499_/X sky130_fd_sc_hd__a2bb2o_4
X_56040_ _56039_/Y _56040_/X sky130_fd_sc_hd__buf_2
X_80304_ _80304_/A _80304_/B _82244_/D sky130_fd_sc_hd__xnor2_4
X_68026_ _87138_/Q _68023_/X _68024_/X _68025_/X _68027_/B sky130_fd_sc_hd__a211o_4
X_53252_ _85668_/Q _51929_/X _53251_/Y _53252_/Y sky130_fd_sc_hd__o21ai_4
X_65238_ _65235_/X _65237_/X _65161_/X _65238_/X sky130_fd_sc_hd__a21o_4
X_84072_ _81322_/CLK _84072_/D _81504_/D sky130_fd_sc_hd__dfxtp_4
X_50464_ _50464_/A _50464_/X sky130_fd_sc_hd__buf_2
X_81284_ _81284_/CLK _76972_/X _81284_/Q sky130_fd_sc_hd__dfxtp_4
X_52203_ _52203_/A _52203_/X sky130_fd_sc_hd__buf_2
X_83023_ _83022_/CLK _74593_/Y _45181_/A sky130_fd_sc_hd__dfxtp_4
X_87900_ _87195_/CLK _87900_/D _87900_/Q sky130_fd_sc_hd__dfxtp_4
X_80235_ _80213_/X _80216_/Y _80235_/X sky130_fd_sc_hd__or2_4
X_53183_ _53187_/A _53183_/B _53183_/Y sky130_fd_sc_hd__nand2_4
X_65169_ _84212_/Q _65170_/C sky130_fd_sc_hd__inv_2
X_50395_ _50491_/A _50395_/X sky130_fd_sc_hd__buf_2
X_52134_ _51956_/X _52156_/C sky130_fd_sc_hd__buf_2
X_87831_ _88326_/CLK _87831_/D _69052_/A sky130_fd_sc_hd__dfxtp_4
X_80166_ _60032_/C _84289_/Q _80166_/X sky130_fd_sc_hd__xor2_4
X_57991_ _57991_/A _57991_/B _57991_/Y sky130_fd_sc_hd__nor2_4
X_69977_ _83882_/Q _69955_/X _69976_/X _83882_/D sky130_fd_sc_hd__a21bo_4
X_59730_ _59730_/A _59754_/A sky130_fd_sc_hd__buf_2
X_52065_ _66283_/B _52041_/X _52064_/Y _52065_/Y sky130_fd_sc_hd__o21ai_4
X_56942_ _56561_/X _56930_/X _56931_/X _85121_/Q _57084_/A _56942_/X
+ sky130_fd_sc_hd__a32o_4
X_68928_ _83955_/Q _68838_/X _68927_/X _68928_/X sky130_fd_sc_hd__a21bo_4
X_87762_ _87260_/CLK _42703_/X _68403_/B sky130_fd_sc_hd__dfxtp_4
X_84974_ _86541_/CLK _84974_/D _84974_/Q sky130_fd_sc_hd__dfxtp_4
X_80097_ _80094_/Y _80077_/Y _80096_/X _80098_/B sky130_fd_sc_hd__o21ai_4
X_51016_ _51003_/A _51016_/B _51016_/Y sky130_fd_sc_hd__nand2_4
X_86713_ _86713_/CLK _86713_/D _58672_/A sky130_fd_sc_hd__dfxtp_4
X_83925_ _81473_/CLK _83925_/D _83925_/Q sky130_fd_sc_hd__dfxtp_4
X_59661_ _59661_/A _59662_/C _59805_/A _59661_/D _59679_/A sky130_fd_sc_hd__and4_4
X_56873_ _56872_/Y _56873_/X sky130_fd_sc_hd__buf_2
X_68859_ _68669_/A _68859_/B _68859_/Y sky130_fd_sc_hd__nor2_4
X_87693_ _87126_/CLK _87693_/D _66710_/B sky130_fd_sc_hd__dfxtp_4
X_58612_ _84814_/Q _58599_/X _58604_/X _58611_/X _84814_/D sky130_fd_sc_hd__a2bb2oi_4
X_55824_ _56424_/C _55454_/X _55457_/X _55823_/X _55824_/X sky130_fd_sc_hd__a211o_4
X_86644_ _86005_/CLK _86644_/D _57919_/A sky130_fd_sc_hd__dfxtp_4
X_71870_ _71870_/A _71870_/Y sky130_fd_sc_hd__inv_2
X_59592_ _59539_/A _59598_/A _44003_/X _59564_/A _59579_/A _60392_/B
+ sky130_fd_sc_hd__a41oi_4
X_83856_ _82596_/CLK _83856_/D _82536_/D sky130_fd_sc_hd__dfxtp_4
X_70821_ _47195_/X _70802_/A _70820_/Y _83692_/D sky130_fd_sc_hd__o21ai_4
X_58543_ _58543_/A _58543_/Y sky130_fd_sc_hd__inv_2
X_82807_ _82740_/CLK _82839_/Q _78617_/B sky130_fd_sc_hd__dfxtp_4
X_55755_ _55752_/Y _44095_/X _55754_/X _56117_/B sky130_fd_sc_hd__a21boi_4
X_86575_ _86576_/CLK _48029_/Y _66168_/B sky130_fd_sc_hd__dfxtp_4
X_40981_ _40931_/X _81720_/Q _40980_/X _40982_/A sky130_fd_sc_hd__o21ai_4
X_52967_ _52947_/X _52982_/B _52977_/C _52967_/D _52967_/X sky130_fd_sc_hd__and4_4
X_83787_ _83787_/CLK _70349_/X _74745_/A sky130_fd_sc_hd__dfxtp_4
X_80999_ _80776_/CLK _65294_/C _75617_/A sky130_fd_sc_hd__dfxtp_4
Xclkbuf_10_593_0_CLK clkbuf_9_296_0_CLK/X _82084_/CLK sky130_fd_sc_hd__clkbuf_1
X_88314_ _88085_/CLK _40900_/X _88314_/Q sky130_fd_sc_hd__dfxtp_4
X_42720_ _42465_/A _42720_/X sky130_fd_sc_hd__buf_2
X_54706_ _85393_/Q _54703_/X _54705_/Y _54706_/Y sky130_fd_sc_hd__o21ai_4
X_85526_ _85815_/CLK _53999_/Y _85526_/Q sky130_fd_sc_hd__dfxtp_4
X_73540_ _73476_/A _86498_/Q _73540_/X sky130_fd_sc_hd__and2_4
X_51918_ _52626_/A _51919_/C sky130_fd_sc_hd__buf_2
X_70752_ _53127_/B _70740_/A _70751_/Y _83708_/D sky130_fd_sc_hd__o21ai_4
X_82738_ _82152_/CLK _84122_/Q _82738_/Q sky130_fd_sc_hd__dfxtp_4
X_58474_ _58474_/A _58474_/B _58474_/Y sky130_fd_sc_hd__nor2_4
X_55686_ _73024_/B _56171_/A _55686_/C _56171_/C _55686_/Y sky130_fd_sc_hd__nand4_4
X_52898_ _85734_/Q _52874_/X _52897_/Y _52898_/Y sky130_fd_sc_hd__o21ai_4
X_57425_ _55317_/B _57413_/X _57425_/X sky130_fd_sc_hd__or2_4
X_88245_ _88245_/CLK _41279_/Y _69104_/B sky130_fd_sc_hd__dfxtp_4
X_42651_ _52754_/A _42651_/X sky130_fd_sc_hd__buf_2
X_54637_ _85405_/Q _54621_/X _54636_/Y _54637_/Y sky130_fd_sc_hd__o21ai_4
X_73471_ _72721_/X _86181_/Q _73351_/X _73470_/X _73471_/X sky130_fd_sc_hd__a211o_4
X_85457_ _85459_/CLK _85457_/D _85457_/Q sky130_fd_sc_hd__dfxtp_4
X_51849_ _85935_/Q _51846_/X _51848_/Y _51849_/Y sky130_fd_sc_hd__o21ai_4
X_70683_ _70664_/X _47489_/A _70682_/Y _83725_/D sky130_fd_sc_hd__a21o_4
X_82669_ _82675_/CLK _82669_/D _82669_/Q sky130_fd_sc_hd__dfxtp_4
X_75210_ _75217_/B _75210_/B _81035_/D sky130_fd_sc_hd__xor2_4
X_41602_ _41601_/X _41581_/X _67231_/B _41582_/X _88184_/D sky130_fd_sc_hd__a2bb2o_4
X_72422_ _58126_/A _72422_/X sky130_fd_sc_hd__buf_2
X_84408_ _84408_/CLK _62469_/Y _76984_/B sky130_fd_sc_hd__dfxtp_4
X_45370_ _45452_/A _45370_/X sky130_fd_sc_hd__buf_2
X_57356_ _57238_/X _57354_/Y _57355_/Y _85030_/D sky130_fd_sc_hd__o21ai_4
X_88176_ _87473_/CLK _88176_/D _67421_/B sky130_fd_sc_hd__dfxtp_4
X_76190_ _76176_/Y _76171_/Y _76175_/A _76190_/X sky130_fd_sc_hd__o21a_4
X_42582_ _42581_/Y _87813_/D sky130_fd_sc_hd__inv_2
X_54568_ _54486_/A _54578_/A sky130_fd_sc_hd__buf_2
X_85388_ _85484_/CLK _54735_/Y _85388_/Q sky130_fd_sc_hd__dfxtp_4
X_44321_ _41839_/X _40488_/X _41631_/X _87167_/Q _40492_/X _44321_/Y
+ sky130_fd_sc_hd__o32ai_4
X_56307_ _56040_/X _56305_/X _56306_/Y _85242_/D sky130_fd_sc_hd__o21ai_4
X_87127_ _87126_/CLK _87127_/D _87127_/Q sky130_fd_sc_hd__dfxtp_4
X_75141_ _75142_/A _75140_/Y _81063_/Q _75141_/X sky130_fd_sc_hd__a21o_4
X_41533_ _40380_/A _41533_/X sky130_fd_sc_hd__buf_2
X_53519_ _85621_/Q _53506_/X _53518_/Y _53519_/Y sky130_fd_sc_hd__o21ai_4
X_72353_ _72258_/X _85678_/Q _72308_/X _72353_/X sky130_fd_sc_hd__o21a_4
X_84339_ _84263_/CLK _84339_/D _84339_/Q sky130_fd_sc_hd__dfxtp_4
X_57287_ _57286_/X _85040_/D sky130_fd_sc_hd__inv_2
X_54499_ _54497_/Y _54475_/X _54498_/X _54499_/Y sky130_fd_sc_hd__a21oi_4
X_47040_ _47034_/Y _47035_/X _47039_/X _86677_/D sky130_fd_sc_hd__a21oi_4
X_59026_ _84775_/Q _58956_/X _59020_/X _59025_/X _84775_/D sky130_fd_sc_hd__a2bb2oi_4
X_71304_ _50328_/B _71290_/X _71303_/Y _83542_/D sky130_fd_sc_hd__o21ai_4
X_44252_ _58020_/A _44252_/X sky130_fd_sc_hd__buf_2
X_56238_ _56099_/X _56225_/X _56237_/Y _85264_/D sky130_fd_sc_hd__o21ai_4
X_75072_ _75069_/Y _75071_/Y _75072_/Y sky130_fd_sc_hd__nand2_4
X_87058_ _88060_/CLK _87058_/D _73104_/A sky130_fd_sc_hd__dfxtp_4
X_41464_ _41449_/X _82336_/Q _41463_/X _41464_/Y sky130_fd_sc_hd__o21ai_4
X_72284_ _72281_/Y _72283_/Y _72201_/X _72284_/X sky130_fd_sc_hd__a21o_4
Xclkbuf_10_531_0_CLK clkbuf_9_265_0_CLK/X _81346_/CLK sky130_fd_sc_hd__clkbuf_1
X_43203_ _87540_/Q _43203_/Y sky130_fd_sc_hd__inv_2
X_74023_ _74022_/X _86542_/Q _74023_/X sky130_fd_sc_hd__and2_4
X_78900_ _78900_/A _78899_/Y _78901_/B sky130_fd_sc_hd__xor2_4
Xclkbuf_6_22_0_CLK clkbuf_6_23_0_CLK/A clkbuf_6_22_0_CLK/X sky130_fd_sc_hd__clkbuf_1
X_86009_ _86008_/CLK _86009_/D _86009_/Q sky130_fd_sc_hd__dfxtp_4
X_40415_ _40414_/X _40416_/A sky130_fd_sc_hd__buf_2
X_71235_ _71235_/A _71091_/B _71232_/C _71235_/Y sky130_fd_sc_hd__nand3_4
X_44183_ _44036_/Y _44184_/A sky130_fd_sc_hd__buf_2
X_56169_ _56169_/A _56150_/B _85283_/Q _56169_/Y sky130_fd_sc_hd__nand3_4
X_79880_ _79878_/Y _79874_/X _79882_/A sky130_fd_sc_hd__nand2_4
X_41395_ _81740_/Q _41325_/X _41395_/X sky130_fd_sc_hd__or2_4
X_43134_ _43046_/X _43125_/X _40802_/X _43133_/Y _43127_/X _87564_/D
+ sky130_fd_sc_hd__o32ai_4
X_78831_ _78831_/A _78831_/B _78831_/X sky130_fd_sc_hd__xor2_4
X_40346_ _40326_/A _86757_/Q _43175_/B _40361_/A sky130_fd_sc_hd__o21a_4
X_71166_ _71170_/A _74531_/B sky130_fd_sc_hd__buf_2
X_48991_ _83614_/Q _72012_/B sky130_fd_sc_hd__inv_2
X_70117_ _70117_/A _70114_/Y _70117_/C _70117_/D _70118_/D sky130_fd_sc_hd__nand4_4
X_47942_ _66055_/B _47897_/X _47941_/Y _47942_/Y sky130_fd_sc_hd__o21ai_4
X_59928_ _59927_/Y _59985_/A sky130_fd_sc_hd__buf_2
X_43065_ _43065_/A _43065_/Y sky130_fd_sc_hd__inv_2
X_78762_ _78762_/A _78761_/X _78762_/X sky130_fd_sc_hd__xor2_4
X_71097_ _71088_/A _71073_/B _71099_/C _71097_/Y sky130_fd_sc_hd__nand3_4
X_75974_ _75948_/Y _75974_/B _75980_/A sky130_fd_sc_hd__nand2_4
Xclkbuf_10_546_0_CLK clkbuf_9_273_0_CLK/X _82642_/CLK sky130_fd_sc_hd__clkbuf_1
Xclkbuf_6_37_0_CLK clkbuf_6_37_0_CLK/A clkbuf_7_74_0_CLK/A sky130_fd_sc_hd__clkbuf_1
X_42016_ _42013_/X _42006_/X _40831_/X _73106_/A _42007_/X _42017_/A
+ sky130_fd_sc_hd__o32ai_4
X_77713_ _77698_/Y _77711_/Y _77712_/Y _77713_/Y sky130_fd_sc_hd__o21ai_4
X_74925_ _74930_/A _74912_/X _74924_/Y _74925_/Y sky130_fd_sc_hd__a21boi_4
X_70048_ _70048_/A _70048_/X sky130_fd_sc_hd__buf_2
X_47873_ _52139_/A _52309_/A sky130_fd_sc_hd__buf_2
X_59859_ _59689_/A _59859_/Y sky130_fd_sc_hd__inv_2
X_78693_ _78689_/Y _78690_/Y _78693_/C _78693_/X sky130_fd_sc_hd__or3_4
X_49612_ _49607_/X _52829_/B _49612_/Y sky130_fd_sc_hd__nand2_4
X_46824_ _46824_/A _52696_/B sky130_fd_sc_hd__inv_2
X_77644_ _77643_/B _77644_/Y sky130_fd_sc_hd__inv_2
X_62870_ _61549_/X _62858_/X _62859_/X _62889_/D _62870_/Y sky130_fd_sc_hd__nand4_4
X_74856_ _74855_/Y _74856_/Y sky130_fd_sc_hd__inv_2
X_61821_ _61865_/A _61865_/B _78075_/B _61821_/Y sky130_fd_sc_hd__nor3_4
X_49543_ _49571_/A _49561_/A sky130_fd_sc_hd__buf_2
X_73807_ _73711_/A _66055_/B _73807_/X sky130_fd_sc_hd__and2_4
X_46755_ _46737_/A _46784_/B _46717_/C _52654_/D _46755_/X sky130_fd_sc_hd__and4_4
X_77575_ _77575_/A _77575_/B _77571_/Y _77576_/B sky130_fd_sc_hd__nand3_4
X_43967_ _43957_/A _87186_/Q _43967_/X sky130_fd_sc_hd__and2_4
X_74787_ _70317_/Y _71012_/B _74786_/Y _74787_/Y sky130_fd_sc_hd__o21ai_4
X_71999_ _71997_/Y _71969_/X _71998_/Y _83305_/D sky130_fd_sc_hd__a21boi_4
X_79314_ _79286_/X _79304_/B _79303_/A _79302_/Y _79314_/X sky130_fd_sc_hd__o22a_4
X_45706_ _57430_/A _45705_/X _45691_/X _45706_/X sky130_fd_sc_hd__o21a_4
X_64540_ _64533_/Y _64539_/X _60074_/X _64540_/Y sky130_fd_sc_hd__o21ai_4
X_76526_ _76524_/X _76525_/Y _76526_/X sky130_fd_sc_hd__and2_4
X_42918_ _42916_/X _42917_/X _41710_/X _67691_/B _42905_/X _42919_/A
+ sky130_fd_sc_hd__o32ai_4
X_49474_ _49467_/A _49456_/B _49467_/C _46810_/X _49474_/X sky130_fd_sc_hd__and4_4
X_61752_ _61752_/A _61723_/X _78079_/B _61752_/Y sky130_fd_sc_hd__nor3_4
X_73738_ _73262_/A _73738_/X sky130_fd_sc_hd__buf_2
X_46686_ _46712_/A _46685_/X _46686_/Y sky130_fd_sc_hd__nand2_4
X_43898_ _43895_/X _43876_/X _41332_/X _87210_/Q _43897_/X _43898_/Y
+ sky130_fd_sc_hd__o32ai_4
X_48425_ _65525_/B _48419_/X _48424_/Y _48425_/Y sky130_fd_sc_hd__o21ai_4
X_60703_ _60724_/B _60702_/Y _60703_/Y sky130_fd_sc_hd__nor2_4
X_79245_ _79245_/A _79245_/B _79246_/B sky130_fd_sc_hd__xor2_4
X_45637_ _82994_/Q _45638_/A sky130_fd_sc_hd__inv_2
X_64471_ _64464_/Y _64470_/X _64442_/X _64471_/X sky130_fd_sc_hd__o21a_4
X_76457_ _76456_/Y _76457_/Y sky130_fd_sc_hd__inv_2
X_42849_ _42945_/A _42849_/X sky130_fd_sc_hd__buf_2
X_61683_ _59443_/A _61683_/X sky130_fd_sc_hd__buf_2
X_73669_ _47880_/Y _73668_/Y _73669_/X sky130_fd_sc_hd__xor2_4
X_66210_ _64598_/X _86220_/Q _65761_/X _66209_/X _66210_/X sky130_fd_sc_hd__a211o_4
X_63422_ _60731_/A _63484_/A sky130_fd_sc_hd__buf_2
X_75408_ _75408_/A _75407_/X _80760_/D sky130_fd_sc_hd__xor2_4
X_48356_ _48353_/Y _48302_/X _48355_/X _86530_/D sky130_fd_sc_hd__a21oi_4
X_60634_ _60659_/A _60725_/A sky130_fd_sc_hd__buf_2
X_67190_ _67241_/A _86780_/Q _67190_/X sky130_fd_sc_hd__and2_4
X_79176_ _79176_/A _79175_/Y _79176_/Y sky130_fd_sc_hd__nand2_4
X_45568_ _55514_/B _45516_/X _45396_/X _45567_/Y _45568_/X sky130_fd_sc_hd__a211o_4
X_76388_ _81362_/Q _81618_/D _76388_/X sky130_fd_sc_hd__xor2_4
X_47307_ _47287_/X _52973_/B _47307_/Y sky130_fd_sc_hd__nand2_4
X_66141_ _65932_/A _66141_/B _66141_/X sky130_fd_sc_hd__and2_4
X_78127_ _78130_/D _78126_/Y _78128_/B sky130_fd_sc_hd__xor2_4
X_44519_ _44512_/X _44513_/X _40770_/Y _44518_/Y _44516_/X _87070_/D
+ sky130_fd_sc_hd__o32ai_4
X_63353_ _63351_/Y _63284_/X _63352_/Y _63353_/Y sky130_fd_sc_hd__a21oi_4
X_75339_ _75334_/X _75337_/Y _75339_/C _75339_/Y sky130_fd_sc_hd__nand3_4
X_48287_ _48287_/A _48286_/X _48287_/C _48287_/X sky130_fd_sc_hd__and3_4
X_60565_ _60564_/X _84599_/D sky130_fd_sc_hd__inv_2
X_45499_ _45492_/X _45496_/Y _45498_/Y _45499_/Y sky130_fd_sc_hd__a21oi_4
X_62304_ _62304_/A _58241_/X _62244_/C _62286_/X _62304_/X sky130_fd_sc_hd__and4_4
X_47238_ _47233_/Y _47224_/X _47237_/X _47238_/Y sky130_fd_sc_hd__a21oi_4
X_66072_ _65300_/X _85622_/Q _65301_/X _66071_/X _66072_/X sky130_fd_sc_hd__a211o_4
X_78058_ _84563_/Q _78058_/B _78058_/X sky130_fd_sc_hd__xor2_4
X_63284_ _63516_/A _63284_/X sky130_fd_sc_hd__buf_2
X_60496_ _60105_/X _60526_/A sky130_fd_sc_hd__buf_2
X_69900_ _69900_/A _88314_/Q _69900_/X sky130_fd_sc_hd__and2_4
X_65023_ _64946_/A _85809_/Q _65023_/X sky130_fd_sc_hd__and2_4
X_77009_ _77009_/A _82276_/D _77010_/A sky130_fd_sc_hd__nand2_4
X_62235_ _62193_/A _62628_/C sky130_fd_sc_hd__buf_2
X_47169_ _82375_/Q _47169_/Y sky130_fd_sc_hd__inv_2
X_80020_ _80016_/Y _80019_/Y _80023_/A sky130_fd_sc_hd__xor2_4
X_69831_ _69988_/A _69831_/X sky130_fd_sc_hd__buf_2
X_50180_ _50178_/Y _50166_/X _50179_/X _50180_/Y sky130_fd_sc_hd__a21oi_4
X_62166_ _62033_/A _62166_/X sky130_fd_sc_hd__buf_2
X_61117_ _64546_/A _61117_/X sky130_fd_sc_hd__buf_2
X_69762_ _70009_/A _69988_/A sky130_fd_sc_hd__buf_2
X_66974_ _87874_/Q _66875_/X _66926_/X _66973_/X _66974_/X sky130_fd_sc_hd__a211o_4
X_62097_ _58279_/A _62097_/X sky130_fd_sc_hd__buf_2
X_68713_ _68586_/A _68713_/X sky130_fd_sc_hd__buf_2
X_65925_ _65896_/A _73588_/B _65925_/X sky130_fd_sc_hd__and2_4
Xclkbuf_8_5_0_CLK clkbuf_8_5_0_CLK/A clkbuf_8_5_0_CLK/X sky130_fd_sc_hd__clkbuf_1
X_61048_ _60953_/X _61044_/X _61016_/Y _60952_/X _61047_/X _84529_/D
+ sky130_fd_sc_hd__o41a_4
X_81971_ _82116_/CLK _81971_/D _77737_/B sky130_fd_sc_hd__dfxtp_4
X_69693_ _69689_/X _69692_/X _69655_/X _69693_/Y sky130_fd_sc_hd__a21oi_4
X_83710_ _83711_/CLK _70748_/Y _83710_/Q sky130_fd_sc_hd__dfxtp_4
X_80922_ _80928_/CLK _84098_/Q _75787_/A sky130_fd_sc_hd__dfxtp_4
X_68644_ _68644_/A _69092_/A sky130_fd_sc_hd__buf_2
X_53870_ _53661_/A _54295_/A sky130_fd_sc_hd__buf_2
X_65856_ _65854_/Y _65830_/X _65855_/X _84173_/D sky130_fd_sc_hd__a21o_4
X_84690_ _84358_/CLK _59844_/Y _80379_/A sky130_fd_sc_hd__dfxtp_4
X_52821_ _52821_/A _52821_/X sky130_fd_sc_hd__buf_2
X_64807_ _64807_/A _64807_/X sky130_fd_sc_hd__buf_2
X_83641_ _86422_/CLK _70988_/Y _83641_/Q sky130_fd_sc_hd__dfxtp_4
X_80853_ _80854_/CLK _80885_/Q _74980_/B sky130_fd_sc_hd__dfxtp_4
X_68575_ _68553_/A _87755_/Q _68575_/X sky130_fd_sc_hd__and2_4
X_65787_ _65855_/A _65775_/B _84178_/Q _65787_/X sky130_fd_sc_hd__and3_4
X_62999_ _63060_/A _62999_/X sky130_fd_sc_hd__buf_2
X_55540_ _85048_/Q _55510_/X _55512_/X _55539_/Y _55540_/X sky130_fd_sc_hd__a211o_4
X_67526_ _87979_/Q _67473_/X _67524_/X _67525_/X _67526_/X sky130_fd_sc_hd__a211o_4
X_86360_ _86361_/CLK _86360_/D _86360_/Q sky130_fd_sc_hd__dfxtp_4
X_52752_ _52744_/A _52752_/B _52752_/Y sky130_fd_sc_hd__nand2_4
X_64738_ _64738_/A _64739_/A sky130_fd_sc_hd__buf_2
X_83572_ _83572_/CLK _71208_/Y _83572_/Q sky130_fd_sc_hd__dfxtp_4
X_80784_ _80784_/CLK _75719_/Y _80784_/Q sky130_fd_sc_hd__dfxtp_4
X_85311_ _85311_/CLK _56018_/Y _85311_/Q sky130_fd_sc_hd__dfxtp_4
X_51703_ _51717_/A _53227_/B _51703_/Y sky130_fd_sc_hd__nand2_4
X_82523_ _82491_/CLK _79119_/Y _82523_/Q sky130_fd_sc_hd__dfxtp_4
X_55471_ _85107_/Q _55468_/X _55469_/X _55470_/Y _55471_/X sky130_fd_sc_hd__a211o_4
X_67457_ _86970_/Q _67432_/X _67433_/X _67456_/X _67457_/X sky130_fd_sc_hd__a211o_4
X_86291_ _86611_/CLK _86291_/D _72294_/B sky130_fd_sc_hd__dfxtp_4
X_52683_ _52515_/A _52684_/A sky130_fd_sc_hd__buf_2
X_64669_ _64666_/X _86142_/Q _64566_/X _64668_/X _64669_/X sky130_fd_sc_hd__a211o_4
X_57210_ _57049_/A _57210_/B _57086_/X _57210_/Y sky130_fd_sc_hd__nor3_4
X_88030_ _88036_/CLK _42112_/Y _88030_/Q sky130_fd_sc_hd__dfxtp_4
X_54422_ _54475_/A _54422_/X sky130_fd_sc_hd__buf_2
X_66408_ _66405_/Y _66377_/X _66407_/Y _84129_/D sky130_fd_sc_hd__a21o_4
X_85242_ _85241_/CLK _85242_/D _56306_/C sky130_fd_sc_hd__dfxtp_4
X_51634_ _51608_/A _51651_/C sky130_fd_sc_hd__buf_2
X_58190_ _44282_/X _58341_/A sky130_fd_sc_hd__buf_2
X_82454_ _82248_/CLK _79146_/X _82454_/Q sky130_fd_sc_hd__dfxtp_4
X_67388_ _57754_/X _67388_/X sky130_fd_sc_hd__buf_2
X_57141_ _57141_/A _57141_/X sky130_fd_sc_hd__buf_2
X_81405_ _83940_/CLK _81405_/D _76747_/B sky130_fd_sc_hd__dfxtp_4
X_69127_ _69123_/X _69126_/X _69035_/X _69127_/X sky130_fd_sc_hd__a21o_4
X_54353_ _54362_/A _54353_/B _54362_/C _54353_/D _54353_/X sky130_fd_sc_hd__and4_4
X_66339_ _64710_/A _86531_/Q _66339_/X sky130_fd_sc_hd__and2_4
X_85173_ _86900_/CLK _85173_/D _55876_/B sky130_fd_sc_hd__dfxtp_4
X_51565_ _50991_/A _51621_/A sky130_fd_sc_hd__buf_2
X_82385_ _84757_/CLK _82193_/Q _82385_/Q sky130_fd_sc_hd__dfxtp_4
X_53304_ _53299_/Y _53301_/X _53303_/X _53304_/Y sky130_fd_sc_hd__a21oi_4
X_84124_ _84161_/CLK _84124_/D _66433_/C sky130_fd_sc_hd__dfxtp_4
X_50516_ _50514_/Y _50491_/X _50515_/X _50516_/Y sky130_fd_sc_hd__a21oi_4
X_81336_ _81333_/CLK _81336_/D _81712_/D sky130_fd_sc_hd__dfxtp_4
X_57072_ _57070_/X _57071_/Y _56953_/X _57072_/Y sky130_fd_sc_hd__a21oi_4
X_69058_ _69485_/A _69058_/X sky130_fd_sc_hd__buf_2
X_54284_ _54284_/A _54366_/A sky130_fd_sc_hd__buf_2
X_51496_ _51491_/A _53021_/B _51496_/Y sky130_fd_sc_hd__nand2_4
X_56023_ _56023_/A _56017_/B _55963_/B _56023_/Y sky130_fd_sc_hd__nand3_4
X_68009_ _67914_/X _86915_/Q _68009_/X sky130_fd_sc_hd__and2_4
X_53235_ _53233_/Y _53215_/X _53234_/X _53235_/Y sky130_fd_sc_hd__a21oi_4
X_84055_ _81492_/CLK _84055_/D _84055_/Q sky130_fd_sc_hd__dfxtp_4
X_50447_ _50447_/A _50456_/B _50462_/C _50447_/X sky130_fd_sc_hd__and3_4
X_81267_ _81631_/CLK _81267_/D _76393_/A sky130_fd_sc_hd__dfxtp_4
X_71020_ _70768_/A _71171_/A sky130_fd_sc_hd__buf_2
X_83006_ _83008_/CLK _83006_/D _45448_/A sky130_fd_sc_hd__dfxtp_4
X_80218_ _80244_/A _80228_/A sky130_fd_sc_hd__inv_2
X_53166_ _53162_/Y _53163_/X _53165_/X _53166_/Y sky130_fd_sc_hd__a21oi_4
X_41180_ _40717_/X _41181_/A sky130_fd_sc_hd__buf_2
X_50378_ _50383_/A _50378_/B _50378_/Y sky130_fd_sc_hd__nand2_4
X_81198_ _81198_/CLK _81198_/D _49077_/A sky130_fd_sc_hd__dfxtp_4
X_52117_ _52462_/A _52117_/X sky130_fd_sc_hd__buf_2
X_87814_ _87814_/CLK _87814_/D _69734_/A sky130_fd_sc_hd__dfxtp_4
X_80149_ _80157_/A _80149_/B _81687_/D sky130_fd_sc_hd__xnor2_4
X_53097_ _53097_/A _53097_/X sky130_fd_sc_hd__buf_2
X_57974_ _57903_/X _85487_/Q _57962_/X _57974_/X sky130_fd_sc_hd__o21a_4
X_59713_ _59713_/A _59713_/Y sky130_fd_sc_hd__inv_2
X_52048_ _85899_/Q _52013_/X _52047_/Y _52048_/Y sky130_fd_sc_hd__o21ai_4
X_56925_ _55218_/Y _56924_/X _56649_/X _56927_/A sky130_fd_sc_hd__a21o_4
X_87745_ _87748_/CLK _87745_/D _87745_/Q sky130_fd_sc_hd__dfxtp_4
X_72971_ _72968_/X _72969_/Y _72970_/X _72971_/Y sky130_fd_sc_hd__a21oi_4
X_84957_ _84869_/CLK _57671_/Y _84957_/Q sky130_fd_sc_hd__dfxtp_4
X_74710_ _74711_/A _74710_/Y sky130_fd_sc_hd__inv_2
X_71922_ _71920_/Y _57270_/X _71921_/Y _83328_/D sky130_fd_sc_hd__a21o_4
X_59644_ _59797_/B _59651_/B sky130_fd_sc_hd__inv_2
X_83908_ _83905_/CLK _83908_/D _81980_/D sky130_fd_sc_hd__dfxtp_4
X_44870_ _45612_/A _45297_/A sky130_fd_sc_hd__buf_2
X_56856_ _83335_/Q _56856_/Y sky130_fd_sc_hd__inv_2
X_75690_ _75678_/A _75677_/Y _75690_/Y sky130_fd_sc_hd__nor2_4
X_87676_ _87675_/CLK _42871_/X _67118_/B sky130_fd_sc_hd__dfxtp_4
X_84888_ _84888_/CLK _84888_/D _84888_/Q sky130_fd_sc_hd__dfxtp_4
X_43821_ _43821_/A _43821_/Y sky130_fd_sc_hd__inv_2
X_55807_ _55804_/X _55806_/X _44111_/X _55807_/X sky130_fd_sc_hd__a21o_4
X_86627_ _86627_/CLK _86627_/D _58132_/A sky130_fd_sc_hd__dfxtp_4
X_74641_ _74685_/C _74641_/X sky130_fd_sc_hd__buf_2
X_71853_ _70534_/Y _71857_/B _71851_/X _71857_/D _71853_/Y sky130_fd_sc_hd__nor4_4
X_59575_ _60639_/A _60620_/B _60620_/C _59575_/Y sky130_fd_sc_hd__nand3_4
X_83839_ _83835_/CLK _70201_/X _74789_/C sky130_fd_sc_hd__dfxtp_4
X_56787_ _56755_/X _56787_/X sky130_fd_sc_hd__buf_2
X_53999_ _53996_/Y _53982_/X _53998_/Y _53999_/Y sky130_fd_sc_hd__a21boi_4
X_46540_ _46531_/A _50854_/B _46540_/Y sky130_fd_sc_hd__nand2_4
X_70804_ _70804_/A _70810_/A sky130_fd_sc_hd__buf_2
X_58526_ _58526_/A _58526_/Y sky130_fd_sc_hd__inv_2
X_77360_ _77360_/A _77354_/X _77360_/C _77361_/A sky130_fd_sc_hd__nand3_4
X_43752_ _43752_/A _43752_/X sky130_fd_sc_hd__buf_2
X_55738_ _55235_/A _55738_/B _55738_/X sky130_fd_sc_hd__and2_4
X_74572_ _45067_/A _74568_/X _74571_/X _83031_/D sky130_fd_sc_hd__o21ai_4
X_86558_ _86558_/CLK _48197_/Y _86558_/Q sky130_fd_sc_hd__dfxtp_4
X_40964_ _40964_/A _40964_/X sky130_fd_sc_hd__buf_2
X_71784_ _71783_/Y _71784_/X sky130_fd_sc_hd__buf_2
X_76311_ _76311_/A _76310_/Y _76312_/B sky130_fd_sc_hd__xnor2_4
X_42703_ _41121_/X _42695_/X _68403_/B _42696_/X _42703_/X sky130_fd_sc_hd__a2bb2o_4
X_73523_ _73524_/B _73524_/C _73522_/X _73523_/X sky130_fd_sc_hd__a21o_4
X_85509_ _86733_/CLK _54080_/Y _85509_/Q sky130_fd_sc_hd__dfxtp_4
X_46471_ _46471_/A _51330_/A sky130_fd_sc_hd__buf_2
X_70735_ _71263_/D _70735_/X sky130_fd_sc_hd__buf_2
X_58457_ _58457_/A _58474_/B _58457_/Y sky130_fd_sc_hd__nor2_4
X_77291_ _81926_/Q _82182_/D _77291_/X sky130_fd_sc_hd__xor2_4
X_43683_ _40787_/A _43659_/X _69622_/B _43661_/X _43683_/X sky130_fd_sc_hd__a2bb2o_4
X_55669_ _55669_/A _55289_/X _55670_/B sky130_fd_sc_hd__and2_4
X_86489_ _85879_/CLK _48753_/Y _65551_/B sky130_fd_sc_hd__dfxtp_4
X_40895_ _40870_/X _40871_/X _40894_/X _69888_/B _40867_/X _40895_/Y
+ sky130_fd_sc_hd__o32ai_4
X_48210_ _48204_/X _50264_/B _48210_/Y sky130_fd_sc_hd__nand2_4
X_79030_ _82827_/Q _82539_/Q _79031_/B sky130_fd_sc_hd__xnor2_4
X_45422_ _45422_/A _45422_/Y sky130_fd_sc_hd__inv_2
X_57408_ _57470_/B _57408_/X sky130_fd_sc_hd__buf_2
X_88228_ _88232_/CLK _88228_/D _67707_/B sky130_fd_sc_hd__dfxtp_4
X_76242_ _76240_/Y _76211_/Y _76241_/X _76242_/Y sky130_fd_sc_hd__o21ai_4
X_42634_ _42634_/A _42634_/X sky130_fd_sc_hd__buf_2
X_49190_ _49190_/A _49161_/B _49190_/Y sky130_fd_sc_hd__nor2_4
X_73454_ _73448_/X _73453_/X _73383_/X _73457_/A sky130_fd_sc_hd__a21o_4
X_70666_ _70410_/Y _70667_/A sky130_fd_sc_hd__buf_2
X_58388_ _58328_/A _58388_/X sky130_fd_sc_hd__buf_2
X_48141_ _48141_/A _50383_/B sky130_fd_sc_hd__buf_2
X_72405_ _72405_/A _72428_/B _72405_/Y sky130_fd_sc_hd__nor2_4
X_45353_ _45342_/X _45349_/Y _45352_/Y _45353_/Y sky130_fd_sc_hd__a21oi_4
X_57339_ _57338_/Y _57290_/A _44039_/X _57339_/X sky130_fd_sc_hd__o21a_4
X_76173_ _76171_/A _76171_/B _76175_/A sky130_fd_sc_hd__nand2_4
X_88159_ _88164_/CLK _88159_/D _67826_/B sky130_fd_sc_hd__dfxtp_4
X_42565_ _42554_/X _42547_/X _40810_/X _42564_/Y _42556_/X _42565_/Y
+ sky130_fd_sc_hd__o32ai_4
X_73385_ _72880_/A _73385_/X sky130_fd_sc_hd__buf_2
X_70597_ DATA_TO_HASH[6] _70768_/A sky130_fd_sc_hd__buf_2
X_44304_ _44313_/A _43987_/A _46228_/A _44304_/Y sky130_fd_sc_hd__nand3_4
X_75124_ _80678_/Q _75124_/B _75124_/X sky130_fd_sc_hd__or2_4
Xclkbuf_10_470_0_CLK clkbuf_9_235_0_CLK/X _85447_/CLK sky130_fd_sc_hd__clkbuf_1
X_41516_ _41489_/X _41490_/X _41515_/X _88200_/Q _41474_/X _41517_/A
+ sky130_fd_sc_hd__o32ai_4
X_72336_ _72336_/A _72348_/B _72336_/Y sky130_fd_sc_hd__nor2_4
X_48072_ _57605_/B _48073_/B sky130_fd_sc_hd__buf_2
X_60350_ _60350_/A _60350_/Y sky130_fd_sc_hd__inv_2
X_45284_ _45284_/A _45284_/X sky130_fd_sc_hd__buf_2
X_42496_ _42574_/A _42496_/X sky130_fd_sc_hd__buf_2
X_47023_ _83046_/Q _47023_/Y sky130_fd_sc_hd__inv_2
X_59009_ _58918_/X _59006_/Y _59008_/Y _58959_/X _58923_/X _59009_/X
+ sky130_fd_sc_hd__o32a_4
X_44235_ _72881_/A _44235_/X sky130_fd_sc_hd__buf_2
X_75055_ _75062_/A _75062_/B _75055_/Y sky130_fd_sc_hd__xnor2_4
X_79932_ _79932_/A _79932_/B _79932_/Y sky130_fd_sc_hd__xnor2_4
X_41447_ _41446_/Y _41447_/X sky130_fd_sc_hd__buf_2
X_60281_ _60281_/A _60284_/A sky130_fd_sc_hd__inv_2
X_72267_ _72240_/X _85685_/Q _72241_/X _72267_/X sky130_fd_sc_hd__o21a_4
X_62020_ _61787_/X _62020_/X sky130_fd_sc_hd__buf_2
X_74006_ _41947_/Y _56182_/X _73962_/X _74005_/Y _74006_/X sky130_fd_sc_hd__a211o_4
X_71218_ _48628_/B _71216_/X _71217_/Y _71218_/Y sky130_fd_sc_hd__o21ai_4
X_44166_ _64619_/A _57736_/A _58834_/A _44265_/D _44166_/Y sky130_fd_sc_hd__nor4_4
X_79863_ _79863_/A _79863_/B _79864_/B sky130_fd_sc_hd__xor2_4
X_41378_ _41378_/A _41378_/Y sky130_fd_sc_hd__inv_2
X_72198_ _72143_/X _85371_/Q _72197_/X _72198_/Y sky130_fd_sc_hd__o21ai_4
Xclkbuf_10_485_0_CLK clkbuf_9_242_0_CLK/X _84797_/CLK sky130_fd_sc_hd__clkbuf_1
X_43117_ _87569_/Q _43117_/Y sky130_fd_sc_hd__inv_2
X_78814_ _78814_/A _82547_/Q _79122_/B sky130_fd_sc_hd__nand2_4
X_40329_ _40402_/A _81184_/Q _40329_/X sky130_fd_sc_hd__or2_4
X_71149_ _70611_/X _71160_/D sky130_fd_sc_hd__buf_2
X_48974_ _48964_/A _52307_/B _48974_/Y sky130_fd_sc_hd__nand2_4
X_44097_ _44096_/X _44097_/X sky130_fd_sc_hd__buf_2
X_79794_ _79794_/A _79794_/B _79794_/Y sky130_fd_sc_hd__nand2_4
X_47925_ _66024_/B _47897_/X _47924_/Y _47925_/Y sky130_fd_sc_hd__o21ai_4
X_43048_ _87595_/Q _43048_/Y sky130_fd_sc_hd__inv_2
X_78745_ _78745_/A _78745_/Y sky130_fd_sc_hd__inv_2
X_63971_ _61954_/X _63955_/X _63905_/C _64033_/D _63971_/Y sky130_fd_sc_hd__nand4_4
X_75957_ _75957_/A _75957_/B _75957_/Y sky130_fd_sc_hd__nand2_4
X_65710_ _65710_/A _65710_/B _65710_/Y sky130_fd_sc_hd__nand2_4
X_62922_ _62920_/X _62893_/X _62921_/Y _84370_/D sky130_fd_sc_hd__a21oi_4
X_74908_ _81130_/D _80842_/Q _74908_/Y sky130_fd_sc_hd__nand2_4
X_47856_ _65935_/B _47840_/X _47855_/Y _47856_/Y sky130_fd_sc_hd__o21ai_4
X_66690_ _87950_/Q _66639_/X _66688_/X _66689_/X _66690_/X sky130_fd_sc_hd__a211o_4
X_78676_ _82522_/Q _82778_/D _78676_/X sky130_fd_sc_hd__xor2_4
X_75888_ _75888_/A _75580_/Y _75888_/Y sky130_fd_sc_hd__nand2_4
X_46807_ _86701_/Q _46767_/X _46806_/Y _46807_/Y sky130_fd_sc_hd__o21ai_4
X_65641_ _65638_/X _85587_/Q _65470_/X _65640_/X _65641_/X sky130_fd_sc_hd__a211o_4
X_77627_ _77627_/A _77626_/Y _82204_/D sky130_fd_sc_hd__xor2_4
X_62853_ _62894_/A _62852_/X _75907_/B _62853_/Y sky130_fd_sc_hd__nor3_4
X_74839_ _74844_/A _46121_/A _74839_/Y sky130_fd_sc_hd__nand2_4
X_47787_ _47787_/A _47788_/A sky130_fd_sc_hd__inv_2
X_44999_ _56303_/C _44979_/X _44926_/X _44999_/X sky130_fd_sc_hd__o21a_4
X_49526_ _49546_/A _46899_/X _49526_/Y sky130_fd_sc_hd__nand2_4
X_61804_ _59721_/X _61823_/A sky130_fd_sc_hd__buf_2
X_68360_ _65117_/A _68360_/X sky130_fd_sc_hd__buf_2
X_46738_ _46734_/Y _46704_/X _46737_/X _86709_/D sky130_fd_sc_hd__a21oi_4
X_65572_ _65516_/X _64855_/Y _65571_/Y _65572_/Y sky130_fd_sc_hd__o21ai_4
X_77558_ _77553_/X _77556_/Y _77558_/C _77559_/B sky130_fd_sc_hd__nand3_4
X_62784_ _57664_/X _62749_/X _62768_/X _62759_/X _62783_/X _62784_/Y
+ sky130_fd_sc_hd__a41oi_4
X_67311_ _66953_/X _67311_/X sky130_fd_sc_hd__buf_2
Xclkbuf_10_423_0_CLK clkbuf_9_211_0_CLK/X _82462_/CLK sky130_fd_sc_hd__clkbuf_1
X_64523_ _64234_/A _64523_/B _58201_/A _64523_/D _64523_/X sky130_fd_sc_hd__and4_4
X_76509_ _76510_/A _76510_/C _76510_/B _76509_/X sky130_fd_sc_hd__a21o_4