.subckt decred_controller CLK_LED DATA_AVAILABLE[0] DATA_AVAILABLE[1] DATA_AVAILABLE[2]
+ DATA_AVAILABLE[3] DATA_FROM_HASH[0] DATA_FROM_HASH[1] DATA_FROM_HASH[2] DATA_FROM_HASH[3]
+ DATA_FROM_HASH[4] DATA_FROM_HASH[5] DATA_FROM_HASH[6] DATA_FROM_HASH[7] DATA_TO_HASH[0]
+ DATA_TO_HASH[1] DATA_TO_HASH[2] DATA_TO_HASH[3] DATA_TO_HASH[4] DATA_TO_HASH[5]
+ DATA_TO_HASH[6] DATA_TO_HASH[7] EXT_RESET_N_fromHost EXT_RESET_N_toClient HASH_ADDR[0]
+ HASH_ADDR[1] HASH_ADDR[2] HASH_ADDR[3] HASH_ADDR[4] HASH_ADDR[5] HASH_EN HASH_LED
+ ID_fromClient ID_toHost IRQ_OUT_fromClient IRQ_OUT_toHost M1_CLK_IN M1_CLK_SELECT
+ MACRO_RD_SELECT[0] MACRO_RD_SELECT[1] MACRO_RD_SELECT[2] MACRO_RD_SELECT[3] MACRO_WR_SELECT[0]
+ MACRO_WR_SELECT[1] MACRO_WR_SELECT[2] MACRO_WR_SELECT[3] MISO_fromClient MISO_toHost
+ MOSI_fromHost MOSI_toClient PLL_INPUT S1_CLK_IN S1_CLK_SELECT SCLK_fromHost SCLK_toClient
+ SCSN_fromHost SCSN_toClient THREAD_COUNT[0] THREAD_COUNT[1] THREAD_COUNT[2] THREAD_COUNT[3]
+ m1_clk_local one zero VPWR VGND
X_2037_ _2043_/C _2047_/A _2043_/D _2037_/D _2038_/B sky130_fd_sc_hd__nand4_4
X_2106_ _1222_/A SCSN_fromHost _2106_/X sky130_fd_sc_hd__or2_4
X_1270_ _1270_/A _2010_/B sky130_fd_sc_hd__buf_2
X_1606_ _1426_/A _1428_/D _1609_/B sky130_fd_sc_hd__nor2_4
X_1399_ _2618_/Q _1397_/Y _1398_/Y _1400_/A sky130_fd_sc_hd__a21o_4
X_1537_ _1424_/Y _1537_/X sky130_fd_sc_hd__buf_2
X_1468_ _1428_/Y _1548_/D sky130_fd_sc_hd__buf_2
X_2586_ _2606_/CLK _2586_/D _1459_/A sky130_fd_sc_hd__dfxtp_4
X_2440_ _2598_/CLK _2143_/Y _1964_/A sky130_fd_sc_hd__dfxtp_4
X_2371_ _2370_/CLK _2371_/D _2371_/Q sky130_fd_sc_hd__dfxtp_4
X_1253_ _2363_/Q _1374_/A sky130_fd_sc_hd__inv_2
X_1322_ _1239_/Y _1321_/X _1316_/D _1323_/A sky130_fd_sc_hd__nand3_4
Xclkbuf_1_0_0_m1_clk_local clkbuf_0_m1_clk_local/X clkbuf_2_1_0_m1_clk_local/A
+ sky130_fd_sc_hd__clkbuf_1
X_1184_ _1528_/A _1185_/A sky130_fd_sc_hd__buf_2
X_2569_ _2570_/CLK _2569_/D _1735_/D sky130_fd_sc_hd__dfxtp_4
X_2638_ _2638_/CLK _2638_/D _1295_/A sky130_fd_sc_hd__dfxtp_4
XINSDIODE2_4 _1955_/X sky130_fd_sc_hd__diode_2
X_1871_ _1870_/X DATA_FROM_HASH[7] _2566_/D sky130_fd_sc_hd__and2_4
X_1940_ _1938_/A _1746_/Y _1940_/Y sky130_fd_sc_hd__nor2_4
X_2423_ _2408_/CLK _2271_/Y _1746_/A sky130_fd_sc_hd__dfxtp_4
X_1236_ _1236_/A _2623_/Q _1237_/A sky130_fd_sc_hd__nand2_4
X_2354_ _2097_/B _1179_/A _2353_/X _2354_/Y sky130_fd_sc_hd__o21ai_4
X_1305_ _1318_/B _1308_/C _1243_/X _1246_/D _1305_/X sky130_fd_sc_hd__and4_4
Xclkbuf_0_m1_clk_local m1_clk_local clkbuf_0_m1_clk_local/X sky130_fd_sc_hd__clkbuf_16
X_2285_ _2276_/X _2253_/Y _2278_/X _1923_/Y _2280_/X _2285_/Y
+ sky130_fd_sc_hd__o32ai_4
Xclkbuf_3_3_0_m1_clk_local clkbuf_3_3_0_m1_clk_local/A clkbuf_4_7_0_m1_clk_local/A
+ sky130_fd_sc_hd__clkbuf_1
X_2070_ _2070_/A _2070_/Y sky130_fd_sc_hd__inv_2
X_1785_ _1783_/Y _1784_/Y _1781_/X _2588_/D sky130_fd_sc_hd__a21oi_4
X_1854_ _1854_/A _1640_/X _1854_/X sky130_fd_sc_hd__or2_4
X_1923_ _2151_/B _1923_/Y sky130_fd_sc_hd__inv_2
X_2406_ _2408_/CLK _2303_/Y HASH_LED sky130_fd_sc_hd__dfxtp_4
X_1219_ _2384_/Q _1219_/X sky130_fd_sc_hd__buf_2
X_2337_ _2337_/A _1575_/Y _1683_/Y _2338_/A sky130_fd_sc_hd__nand3_4
X_2199_ _1623_/Y _2428_/Q _2199_/Y sky130_fd_sc_hd__nand2_4
X_2268_ _2268_/A _2268_/Y sky130_fd_sc_hd__inv_2
X_1570_ _1570_/A _1571_/A sky130_fd_sc_hd__buf_2
X_2053_ _1992_/A _2060_/A _1992_/D _2053_/Y sky130_fd_sc_hd__nor3_4
X_2122_ _1874_/A _2121_/X _1420_/A _2122_/Y sky130_fd_sc_hd__nand3_4
X_1837_ _1836_/X _2570_/D sky130_fd_sc_hd__inv_2
X_1906_ _2154_/B _1906_/Y sky130_fd_sc_hd__inv_2
X_1768_ _1438_/B _1768_/B _1768_/X sky130_fd_sc_hd__xor2_4
X_1699_ _1693_/Y _1698_/Y _1454_/X _2594_/D sky130_fd_sc_hd__a21oi_4
X_1622_ _2426_/Q _1622_/Y sky130_fd_sc_hd__inv_2
X_1553_ _1490_/A _1527_/Y _1530_/Y _1552_/Y _1557_/A sky130_fd_sc_hd__a211o_4
X_1484_ _1484_/A _1505_/B sky130_fd_sc_hd__buf_2
X_2036_ _2037_/D _2035_/X _1374_/X _2038_/A sky130_fd_sc_hd__o21a_4
X_2105_ _1222_/A _2105_/B _2105_/X sky130_fd_sc_hd__or2_4
X_1605_ _1605_/A _1651_/A sky130_fd_sc_hd__buf_2
X_2585_ _2581_/CLK _1796_/X _1477_/A sky130_fd_sc_hd__dfxtp_4
X_1536_ _1525_/Y _1532_/Y _1535_/X _2604_/D sky130_fd_sc_hd__a21oi_4
X_1398_ _2618_/Q _1397_/Y _1374_/X _1398_/Y sky130_fd_sc_hd__o21ai_4
X_1467_ _2602_/Q _1467_/Y sky130_fd_sc_hd__inv_2
X_2019_ _1395_/A _2019_/B _2019_/C _2019_/Y sky130_fd_sc_hd__nor3_4
X_2370_ _2370_/CLK _2369_/Q _2371_/D sky130_fd_sc_hd__dfxtp_4
X_1321_ _1241_/Y _1321_/X sky130_fd_sc_hd__buf_2
X_1252_ _1271_/C _1251_/Y _1263_/A sky130_fd_sc_hd__nand2_4
X_1183_ _2353_/A _1179_/X _1182_/X _1183_/Y sky130_fd_sc_hd__o21ai_4
Xclkbuf_3_4_0_addressalyzerBlock.SPI_CLK clkbuf_3_5_0_addressalyzerBlock.SPI_CLK/A
+ clkbuf_4_9_0_addressalyzerBlock.SPI_CLK/A sky130_fd_sc_hd__clkbuf_1
XINSDIODE2_5 _1920_/X sky130_fd_sc_hd__diode_2
X_2499_ _2470_/CLK _1971_/X MACRO_WR_SELECT[0] sky130_fd_sc_hd__dfxtp_4
X_2568_ _2550_/CLK _2568_/D _1862_/B sky130_fd_sc_hd__dfxtp_4
X_2637_ _2477_/CLK _2637_/D _1299_/A sky130_fd_sc_hd__dfxtp_4
X_1519_ _1473_/B _1440_/B _1518_/Y _1519_/Y sky130_fd_sc_hd__o21ai_4
X_1870_ _1840_/B _1870_/X sky130_fd_sc_hd__buf_2
X_2353_ _2353_/A _1180_/Y _2353_/X sky130_fd_sc_hd__or2_4
X_2422_ _2408_/CLK _2422_/D _1941_/A sky130_fd_sc_hd__dfxtp_4
X_1235_ _1235_/A _1365_/D sky130_fd_sc_hd__inv_2
X_1304_ _2635_/Q _1308_/C sky130_fd_sc_hd__buf_2
X_2284_ _2276_/X _2133_/Y _2278_/X _1744_/B _2280_/X _2415_/D
+ sky130_fd_sc_hd__o32ai_4
X_1999_ _1999_/A _1999_/B _2011_/A _2492_/Q _2010_/C sky130_fd_sc_hd__nand4_4
X_1922_ _1932_/A _2537_/Q _2531_/D sky130_fd_sc_hd__and2_4
X_1784_ _1678_/Y _2349_/A _1784_/Y sky130_fd_sc_hd__nand2_4
X_1853_ _1850_/X _1852_/X _1471_/X _1853_/Y sky130_fd_sc_hd__a21oi_4
X_2336_ _1575_/Y _2328_/X _2335_/Y _2388_/D sky130_fd_sc_hd__o21ai_4
X_2405_ _2557_/CLK _2305_/Y _1232_/A sky130_fd_sc_hd__dfxtp_4
X_1218_ _1218_/A _1218_/B _1218_/Y sky130_fd_sc_hd__nand2_4
X_2267_ _2266_/Y _2262_/X _2258_/X _1937_/Y _2264_/X _2425_/D
+ sky130_fd_sc_hd__o32ai_4
X_2198_ _2196_/Y _1708_/X _2198_/C _2198_/Y sky130_fd_sc_hd__nand3_4
X_2052_ _2014_/X _2040_/X _2051_/Y _2052_/Y sky130_fd_sc_hd__a21oi_4
X_2121_ _1696_/A _2121_/X sky130_fd_sc_hd__buf_2
X_1905_ _1901_/X _1905_/B _1905_/Y sky130_fd_sc_hd__nor2_4
X_1836_ _1735_/C _1834_/Y _1835_/Y _1836_/X sky130_fd_sc_hd__a21o_4
X_1698_ _1698_/A _1697_/Y _1689_/Y _2340_/B _1698_/Y sky130_fd_sc_hd__nand4_4
X_1767_ _1483_/B _1767_/B _1767_/X sky130_fd_sc_hd__xor2_4
X_2319_ _1771_/Y _2310_/X _1503_/A _2312_/X _2319_/X sky130_fd_sc_hd__a2bb2o_4
X_1552_ _1537_/X _1548_/D _1544_/Y _1552_/Y sky130_fd_sc_hd__a21oi_4
X_1621_ _2410_/Q _2181_/A _1617_/Y _1620_/Y _1621_/X sky130_fd_sc_hd__a211o_4
X_2104_ _2104_/A _2091_/Y _2103_/Y _2468_/Q _2104_/X sky130_fd_sc_hd__and4_4
X_1483_ _1482_/Y _1483_/B _2604_/Q _2603_/Q _1484_/A sky130_fd_sc_hd__and4_4
X_2035_ _2029_/Y _2030_/X _2017_/B _2043_/D _2035_/X sky130_fd_sc_hd__and4_4
X_1819_ _2575_/Q _1809_/X _1818_/X _2576_/D sky130_fd_sc_hd__o21a_4
X_1604_ _1559_/B _2600_/Q _1605_/A sky130_fd_sc_hd__and2_4
X_1535_ _1556_/A _1534_/X _1500_/X _1535_/X sky130_fd_sc_hd__a21o_4
X_2584_ _2606_/CLK _1798_/X _1490_/A sky130_fd_sc_hd__dfxtp_4
X_1397_ _1397_/A _1397_/B _1397_/C _1397_/Y sky130_fd_sc_hd__nor3_4
X_1466_ _1466_/A _1466_/Y sky130_fd_sc_hd__inv_2
X_2018_ _2488_/Q _2017_/X _1984_/A _1999_/A _2011_/A _2019_/C
+ sky130_fd_sc_hd__a41oi_4
X_1320_ _1319_/Y _2634_/D sky130_fd_sc_hd__inv_2
X_1182_ _1182_/A _1194_/B _1182_/X sky130_fd_sc_hd__or2_4
X_1251_ _1251_/A _1251_/Y sky130_fd_sc_hd__inv_2
X_2636_ _2477_/CLK _2636_/D _2636_/Q sky130_fd_sc_hd__dfxtp_4
X_2498_ _2498_/CLK _2498_/D _1973_/A sky130_fd_sc_hd__dfxtp_4
X_2567_ _2498_/CLK _1869_/Y _2567_/Q sky130_fd_sc_hd__dfxtp_4
X_1518_ _1473_/B _1482_/Y _1473_/C _1466_/A _2340_/C _1518_/Y
+ sky130_fd_sc_hd__a41oi_4
X_1449_ _1441_/Y _1449_/B _1449_/Y sky130_fd_sc_hd__nand2_4
X_2352_ _2543_/Q _2544_/Q _2352_/C IRQ_OUT_toHost sky130_fd_sc_hd__or3_4
X_1303_ _1258_/Y _1318_/B sky130_fd_sc_hd__buf_2
X_2283_ _2276_/X _2130_/Y _2278_/X _1845_/B _2280_/X _2416_/D
+ sky130_fd_sc_hd__o32ai_4
X_2421_ _2408_/CLK _2421_/D _1944_/A sky130_fd_sc_hd__dfxtp_4
X_1234_ _1385_/A _2621_/Q _1235_/A sky130_fd_sc_hd__nand2_4
X_1998_ _1998_/A _2008_/A _1999_/B sky130_fd_sc_hd__nor2_4
X_2619_ _2370_/CLK _1395_/Y _2619_/Q sky130_fd_sc_hd__dfxtp_4
X_1921_ _1254_/X _1932_/A sky130_fd_sc_hd__buf_2
X_1852_ _2444_/Q _1751_/A _1633_/X _1851_/Y _1852_/X sky130_fd_sc_hd__a211o_4
X_1783_ _1678_/A _1783_/B _1779_/C _1783_/D _1783_/Y sky130_fd_sc_hd__nand4_4
X_2335_ _2335_/A _2335_/B _1218_/B _1577_/X _2335_/Y sky130_fd_sc_hd__nand4_4
X_2266_ _2266_/A _2266_/Y sky130_fd_sc_hd__inv_2
X_2404_ _2408_/CLK _2307_/Y _2404_/Q sky130_fd_sc_hd__dfxtp_4
X_1217_ _1185_/A _1218_/B sky130_fd_sc_hd__buf_2
X_2197_ _2404_/Q _2175_/B _2198_/C sky130_fd_sc_hd__nand2_4
X_2120_ _2123_/A _2120_/X sky130_fd_sc_hd__buf_2
X_2051_ _2014_/X _2040_/X _1346_/X _2051_/Y sky130_fd_sc_hd__o21ai_4
X_1835_ _1735_/C _1834_/Y _1831_/B _1835_/Y sky130_fd_sc_hd__o21ai_4
X_1904_ _2431_/Q _1905_/B sky130_fd_sc_hd__inv_2
X_1697_ _1697_/A _1697_/Y sky130_fd_sc_hd__inv_2
X_1766_ _1438_/C _1766_/B _1766_/Y sky130_fd_sc_hd__nor2_4
X_2249_ _2248_/X _2249_/X sky130_fd_sc_hd__buf_2
X_2318_ _2158_/B _2311_/X _2253_/C _2313_/X _2318_/X sky130_fd_sc_hd__a2bb2o_4
X_1551_ _1546_/X _1550_/Y _1454_/X _1551_/Y sky130_fd_sc_hd__a21oi_4
X_1620_ _2175_/B _1620_/B _1620_/Y sky130_fd_sc_hd__nor2_4
X_1482_ _1467_/Y _1424_/Y _1428_/Y _1482_/Y sky130_fd_sc_hd__nor3_4
X_2103_ _2103_/A _2103_/Y sky130_fd_sc_hd__inv_2
X_2034_ _2017_/C _2032_/X _2033_/Y _2034_/X sky130_fd_sc_hd__o21a_4
X_1818_ _2576_/Q _1810_/X _1813_/X _1818_/X sky130_fd_sc_hd__o21a_4
X_1749_ _1745_/X _1748_/Y _1628_/X _1749_/X sky130_fd_sc_hd__a21o_4
Xclkbuf_4_4_0_addressalyzerBlock.SPI_CLK clkbuf_4_5_0_addressalyzerBlock.SPI_CLK/A
+ _2557_/CLK sky130_fd_sc_hd__clkbuf_1
X_2652_ _2570_/CLK _2652_/D _2097_/B sky130_fd_sc_hd__dfxtp_4
X_1534_ _1534_/A _1534_/X sky130_fd_sc_hd__buf_2
X_1603_ _1602_/Y _1603_/Y sky130_fd_sc_hd__inv_2
X_2583_ _2606_/CLK _2583_/D _1497_/A sky130_fd_sc_hd__dfxtp_4
X_1465_ _1458_/Y _1463_/Y _1464_/Y _2611_/D sky130_fd_sc_hd__a21oi_4
X_2017_ _2047_/A _2017_/B _2017_/C _2017_/D _2017_/X sky130_fd_sc_hd__and4_4
X_1396_ _1231_/B _1397_/A sky130_fd_sc_hd__inv_2
X_1181_ _1180_/Y _1194_/B sky130_fd_sc_hd__buf_2
X_1250_ _1262_/C _1277_/B _1277_/D _1249_/Y _1271_/C sky130_fd_sc_hd__nand4_4
X_2635_ _2477_/CLK _2635_/D _2635_/Q sky130_fd_sc_hd__dfxtp_4
Xclkbuf_4_8_0_m1_clk_local clkbuf_4_9_0_m1_clk_local/A _2618_/CLK
+ sky130_fd_sc_hd__clkbuf_1
X_2497_ _2496_/CLK _1978_/X _2497_/Q sky130_fd_sc_hd__dfxtp_4
X_2566_ _2557_/CLK _2566_/D _2566_/Q sky130_fd_sc_hd__dfxtp_4
X_1517_ _1513_/X _1515_/Y _1516_/X _2606_/D sky130_fd_sc_hd__a21oi_4
X_1448_ _1448_/A _1449_/B sky130_fd_sc_hd__buf_2
X_1379_ _1379_/A _1379_/X sky130_fd_sc_hd__buf_2
X_2420_ _2408_/CLK _2420_/D _2420_/Q sky130_fd_sc_hd__dfxtp_4
X_2351_ _2351_/A _2546_/Q _2351_/C _2352_/C sky130_fd_sc_hd__or3_4
X_1233_ _1233_/A _1397_/B _1233_/C _1397_/C _1379_/A sky130_fd_sc_hd__nor4_4
X_1302_ _1301_/Y _2637_/D sky130_fd_sc_hd__inv_2
X_2282_ _2276_/X _2127_/Y _2278_/X _1705_/Y _2280_/X _2417_/D
+ sky130_fd_sc_hd__o32ai_4
X_1997_ _2017_/C _1994_/Y _2488_/Q _2017_/D _2008_/A sky130_fd_sc_hd__nand4_4
X_2549_ _2550_/CLK _2549_/D _1897_/B sky130_fd_sc_hd__dfxtp_4
X_2618_ _2618_/CLK _1400_/Y _2618_/Q sky130_fd_sc_hd__dfxtp_4
Xclkbuf_1_0_0_addressalyzerBlock.SPI_CLK clkbuf_0_addressalyzerBlock.SPI_CLK/X
+ clkbuf_2_1_0_addressalyzerBlock.SPI_CLK/A sky130_fd_sc_hd__clkbuf_1
X_1851_ _1635_/X _1766_/B _1851_/Y sky130_fd_sc_hd__nor2_4
X_1920_ _1918_/A _2538_/Q _1920_/X sky130_fd_sc_hd__and2_4
X_1782_ _1779_/Y _1780_/Y _1781_/X _1782_/Y sky130_fd_sc_hd__a21oi_4
X_2403_ _2408_/CLK _2403_/D _2089_/A sky130_fd_sc_hd__dfxtp_4
X_1216_ _1194_/B _1216_/B _2645_/Q _1216_/Y sky130_fd_sc_hd__nand3_4
X_2334_ _1529_/Y _2333_/Y _1781_/X _2389_/D sky130_fd_sc_hd__a21oi_4
X_2265_ _1420_/Y _2262_/X _2258_/X _1622_/Y _2264_/X _2426_/D
+ sky130_fd_sc_hd__o32ai_4
X_2196_ _2151_/A _1927_/A _2196_/Y sky130_fd_sc_hd__nand2_4
X_2050_ _2049_/Y _2050_/Y sky130_fd_sc_hd__inv_2
X_1834_ _1834_/A _1834_/Y sky130_fd_sc_hd__inv_2
X_1903_ _1901_/X _1902_/Y _1903_/Y sky130_fd_sc_hd__nor2_4
X_1765_ _1765_/A _1766_/B sky130_fd_sc_hd__inv_2
X_1696_ _1696_/A _1698_/A sky130_fd_sc_hd__buf_2
X_2317_ _1751_/B _2311_/X _1490_/A _2313_/X _2399_/D sky130_fd_sc_hd__a2bb2o_4
X_2179_ _2177_/Y _2179_/B _2179_/C _2179_/Y sky130_fd_sc_hd__nand3_4
X_2248_ _1583_/X _1594_/X _1600_/B _1696_/A _1736_/A _2248_/X
+ sky130_fd_sc_hd__a41o_4
X_1550_ _1547_/X _1548_/Y _1549_/Y _1550_/Y sky130_fd_sc_hd__o21ai_4
X_1481_ _1436_/B _1487_/A sky130_fd_sc_hd__buf_2
X_2033_ _2043_/C _2047_/A _2017_/C _2017_/D _1275_/X _2033_/Y
+ sky130_fd_sc_hd__a41oi_4
X_2102_ _2102_/A _2103_/A _2468_/Q _2091_/Y _2461_/D sky130_fd_sc_hd__nor4_4
X_1817_ _2576_/Q _1809_/X _1816_/X _1817_/X sky130_fd_sc_hd__o21a_4
X_1748_ _1746_/Y _1624_/X _1747_/Y _1748_/Y sky130_fd_sc_hd__o21ai_4
X_1679_ _1566_/X _1683_/A _1679_/Y sky130_fd_sc_hd__nor2_4
X_2651_ _2457_/CLK _1193_/Y _2353_/A sky130_fd_sc_hd__dfxtp_4
X_1602_ _1602_/A _1600_/Y _1602_/C _1602_/Y sky130_fd_sc_hd__nand3_4
X_2582_ _2581_/CLK _2582_/D _1503_/A sky130_fd_sc_hd__dfxtp_4
X_1395_ _1395_/A _1379_/X _1394_/Y _1395_/Y sky130_fd_sc_hd__nor3_4
X_1464_ _1438_/B _1449_/B _1213_/X _1464_/Y sky130_fd_sc_hd__o21ai_4
X_1533_ _2604_/Q _1534_/A sky130_fd_sc_hd__inv_2
X_2016_ _1987_/A _2017_/B sky130_fd_sc_hd__buf_2
X_1180_ _1178_/A _1180_/Y sky130_fd_sc_hd__inv_2
X_2634_ _2626_/CLK _2634_/D _1318_/A sky130_fd_sc_hd__dfxtp_4
X_2565_ _2562_/CLK _2565_/D _2565_/Q sky130_fd_sc_hd__dfxtp_4
X_1516_ _1450_/X _1512_/Y _1500_/X _1516_/X sky130_fd_sc_hd__a21o_4
X_2496_ _2496_/CLK _2496_/D _2496_/Q sky130_fd_sc_hd__dfxtp_4
X_1378_ _1378_/A _2624_/D sky130_fd_sc_hd__inv_2
X_1447_ _1446_/Y _1448_/A sky130_fd_sc_hd__inv_2
X_2350_ _2349_/A _2348_/Y _2349_/Y MISO_toHost sky130_fd_sc_hd__a21oi_4
X_1232_ _1232_/A _2615_/Q _1409_/B _1232_/D _1397_/C sky130_fd_sc_hd__nand4_4
X_1301_ _1301_/A _2006_/B _1300_/Y _1301_/Y sky130_fd_sc_hd__nand3_4
X_2281_ _2276_/X _2122_/Y _2278_/X _1620_/B _2280_/X _2281_/Y
+ sky130_fd_sc_hd__o32ai_4
X_1996_ _1995_/Y _2017_/D sky130_fd_sc_hd__inv_2
X_2548_ _2550_/CLK _1894_/X _1899_/B sky130_fd_sc_hd__dfxtp_4
X_2617_ _2618_/CLK _1404_/Y _1231_/B sky130_fd_sc_hd__dfxtp_4
X_2479_ _2483_/CLK _2065_/X _1993_/A sky130_fd_sc_hd__dfxtp_4
X_1781_ _1781_/A _1781_/X sky130_fd_sc_hd__buf_2
X_1850_ _1846_/X _1849_/Y _1628_/X _1850_/X sky130_fd_sc_hd__a21o_4
X_2333_ _1218_/B _2333_/B _2333_/Y sky130_fd_sc_hd__nand2_4
X_2402_ _2445_/CLK _2402_/D _1636_/A sky130_fd_sc_hd__dfxtp_4
X_1215_ _1211_/Y _2322_/A _1214_/Y _1215_/Y sky130_fd_sc_hd__a21oi_4
X_2195_ _1534_/A _2552_/Q _2148_/X _2195_/Y sky130_fd_sc_hd__o21ai_4
X_2264_ _2263_/X _2264_/X sky130_fd_sc_hd__buf_2
X_1979_ _1979_/A _2496_/Q _1979_/X sky130_fd_sc_hd__or2_4
X_1902_ _1902_/A _1902_/Y sky130_fd_sc_hd__inv_2
X_1833_ _1178_/A _1735_/D _1834_/A sky130_fd_sc_hd__nand2_4
X_1764_ _1764_/A _1764_/Y sky130_fd_sc_hd__inv_2
X_2316_ _1766_/B _2311_/X _2268_/A _2313_/X _2316_/X sky130_fd_sc_hd__a2bb2o_4
X_1695_ _1694_/X _1696_/A sky130_fd_sc_hd__buf_2
X_2247_ _2246_/Y _2247_/X sky130_fd_sc_hd__buf_2
X_2178_ _1944_/A _1703_/A _2179_/C sky130_fd_sc_hd__nand2_4
Xclkbuf_4_9_0_addressalyzerBlock.SPI_CLK clkbuf_4_9_0_addressalyzerBlock.SPI_CLK/A
+ _2388_/CLK sky130_fd_sc_hd__clkbuf_1
X_1480_ _1476_/Y _1478_/Y _1479_/Y _1480_/Y sky130_fd_sc_hd__a21oi_4
X_2032_ _2029_/Y _2030_/X _2043_/C _2017_/D _2032_/X sky130_fd_sc_hd__and4_4
X_2101_ _1221_/A _2102_/A sky130_fd_sc_hd__buf_2
X_1678_ _1678_/A _1678_/Y sky130_fd_sc_hd__inv_2
X_1816_ _2577_/Q _1810_/X _1813_/X _1816_/X sky130_fd_sc_hd__o21a_4
X_1747_ _1625_/X _2431_/Q _1708_/X _1747_/Y sky130_fd_sc_hd__a21oi_4
X_2650_ _2457_/CLK _1197_/Y _1182_/A sky130_fd_sc_hd__dfxtp_4
X_2581_ _2581_/CLK _1805_/X _1514_/A sky130_fd_sc_hd__dfxtp_4
X_1601_ _1555_/A _1602_/C sky130_fd_sc_hd__buf_2
X_1532_ _1420_/A _1527_/Y _1556_/A _1532_/Y sky130_fd_sc_hd__a21oi_4
X_1394_ _2619_/Q _1383_/A _1394_/Y sky130_fd_sc_hd__nor2_4
X_1463_ _2266_/A _2333_/B _1462_/X _1463_/Y sky130_fd_sc_hd__a21oi_4
X_2015_ _2014_/X _1986_/Y _1994_/D _2047_/A sky130_fd_sc_hd__nor3_4
Xclkbuf_2_1_0_m1_clk_local clkbuf_2_1_0_m1_clk_local/A clkbuf_3_3_0_m1_clk_local/A
+ sky130_fd_sc_hd__clkbuf_1
Xclkbuf_2_0_0_addressalyzerBlock.SPI_CLK clkbuf_2_1_0_addressalyzerBlock.SPI_CLK/A
+ clkbuf_2_0_0_addressalyzerBlock.SPI_CLK/X sky130_fd_sc_hd__clkbuf_1
X_2495_ _2496_/CLK _2495_/D _1979_/A sky130_fd_sc_hd__dfxtp_4
X_2633_ _2626_/CLK _2633_/D _1244_/B sky130_fd_sc_hd__dfxtp_4
X_2564_ _2557_/CLK _2564_/D _2564_/Q sky130_fd_sc_hd__dfxtp_4
X_1515_ _1514_/X _1460_/X _1462_/X _1515_/Y sky130_fd_sc_hd__a21oi_4
X_1377_ _1375_/X _1376_/Y _1378_/A sky130_fd_sc_hd__nand2_4
X_1446_ _1442_/X _1445_/A _1545_/A _1446_/Y sky130_fd_sc_hd__nand3_4
X_1231_ _2618_/Q _1231_/B _1233_/C sky130_fd_sc_hd__nand2_4
X_1300_ _1260_/Y _1300_/B _1300_/Y sky130_fd_sc_hd__nand2_4
X_2280_ _2279_/X _2280_/X sky130_fd_sc_hd__buf_2
X_1995_ _2043_/D _2037_/D _1995_/Y sky130_fd_sc_hd__nand2_4
X_2616_ _2618_/CLK _1408_/Y _2616_/Q sky130_fd_sc_hd__dfxtp_4
X_2547_ _2550_/CLK _2547_/D _2547_/Q sky130_fd_sc_hd__dfxtp_4
X_2478_ _2483_/CLK _2478_/D _2478_/Q sky130_fd_sc_hd__dfxtp_4
X_1429_ _1424_/Y _1428_/Y _1429_/Y sky130_fd_sc_hd__nor2_4
Xclkbuf_4_4_0_m1_clk_local clkbuf_4_5_0_m1_clk_local/A _2477_/CLK
+ sky130_fd_sc_hd__clkbuf_1
X_1780_ _1678_/Y _1780_/B _1780_/Y sky130_fd_sc_hd__nand2_4
X_2332_ _1218_/B _2392_/Q _2102_/A _1729_/Y _2391_/D sky130_fd_sc_hd__a211o_4
X_2401_ _2410_/CLK _2401_/D _1768_/B sky130_fd_sc_hd__dfxtp_4
X_1214_ _2436_/Q _1187_/A _1213_/X _1214_/Y sky130_fd_sc_hd__o21ai_4
X_2194_ _1409_/B _1571_/A _1568_/A _1660_/A _2146_/Y _2194_/Y
+ sky130_fd_sc_hd__o41ai_4
X_2263_ _1583_/X _1594_/X _1669_/B _1694_/X _1736_/A _2263_/X
+ sky130_fd_sc_hd__a41o_4
X_1978_ _1980_/A _1978_/B _1978_/C _1978_/X sky130_fd_sc_hd__and3_4
X_1832_ _1829_/Y _1830_/Y _1831_/Y _2571_/D sky130_fd_sc_hd__a21oi_4
X_1901_ _2063_/A _1901_/X sky130_fd_sc_hd__buf_2
X_1763_ _1740_/Y _1760_/Y _1762_/Y _2590_/D sky130_fd_sc_hd__o21ai_4
X_1694_ _2594_/Q _1694_/X sky130_fd_sc_hd__buf_2
X_2315_ _1713_/Y _2311_/X _2266_/A _2313_/X _2401_/D sky130_fd_sc_hd__a2bb2o_4
X_2246_ _2246_/A _2246_/Y sky130_fd_sc_hd__inv_2
X_2177_ _2151_/A _2177_/B _2177_/Y sky130_fd_sc_hd__nand2_4
Xclkbuf_4_14_0_addressalyzerBlock.SPI_CLK clkbuf_3_7_0_addressalyzerBlock.SPI_CLK/X
+ _2570_/CLK sky130_fd_sc_hd__clkbuf_1
XPHY_120 sky130_fd_sc_hd__decap_3
X_2100_ _1781_/X _2099_/C _2098_/Y _2462_/D sky130_fd_sc_hd__nor3_4
X_2031_ _2017_/B _2043_/C sky130_fd_sc_hd__buf_2
XPHY_0 sky130_fd_sc_hd__decap_3
X_1815_ _2577_/Q _1809_/X _1814_/X _2578_/D sky130_fd_sc_hd__o21a_4
X_1677_ _1674_/Y _1676_/Y _2596_/D sky130_fd_sc_hd__nand2_4
X_1746_ _1746_/A _1746_/Y sky130_fd_sc_hd__inv_2
X_2229_ _1645_/A _1333_/A _1612_/A _2229_/Y sky130_fd_sc_hd__a21oi_4
X_1531_ _1530_/Y _1556_/A sky130_fd_sc_hd__buf_2
X_1600_ _1549_/A _1600_/B _1600_/Y sky130_fd_sc_hd__nand2_4
X_1462_ _1450_/X _1462_/X sky130_fd_sc_hd__buf_2
X_2580_ _2581_/CLK _1807_/X _1520_/A sky130_fd_sc_hd__dfxtp_4
X_1393_ _1385_/D _1379_/X _1392_/Y _2620_/D sky130_fd_sc_hd__o21a_4
X_2014_ _1985_/Y _2014_/X sky130_fd_sc_hd__buf_2
X_1729_ _2386_/Q _1566_/A _1689_/Y _1729_/Y sky130_fd_sc_hd__nor3_4
X_2632_ _2626_/CLK _1337_/Y _1335_/A sky130_fd_sc_hd__dfxtp_4
X_2563_ _2562_/CLK _1876_/X _2563_/Q sky130_fd_sc_hd__dfxtp_4
X_1445_ _1445_/A _1434_/Y _1444_/Y _1445_/D _1545_/A sky130_fd_sc_hd__nand4_4
X_2494_ _2388_/CLK _1983_/Y _1528_/A sky130_fd_sc_hd__dfxtp_4
X_1514_ _1514_/A _1514_/X sky130_fd_sc_hd__buf_2
X_1376_ _1366_/X _1236_/A _1373_/B _1376_/Y sky130_fd_sc_hd__nand3_4
Xclkbuf_4_12_0_m1_clk_local clkbuf_3_6_0_m1_clk_local/X _2367_/CLK
+ sky130_fd_sc_hd__clkbuf_1
X_1230_ _2616_/Q _1397_/B sky130_fd_sc_hd__inv_2
X_1994_ _1985_/Y _1986_/Y _1994_/C _1994_/D _1994_/Y sky130_fd_sc_hd__nor4_4
X_2615_ _2618_/CLK _1412_/X _2615_/Q sky130_fd_sc_hd__dfxtp_4
X_2546_ _2550_/CLK _2546_/D _2546_/Q sky130_fd_sc_hd__dfxtp_4
X_2477_ _2477_/CLK _2070_/Y _2477_/Q sky130_fd_sc_hd__dfxtp_4
X_1428_ _1570_/A _1428_/B _1428_/C _1428_/D _1428_/Y sky130_fd_sc_hd__nand4_4
X_1359_ _1358_/Y _2627_/D sky130_fd_sc_hd__inv_2
X_2400_ _2606_/CLK _2316_/X _1765_/A sky130_fd_sc_hd__dfxtp_4
X_1213_ _2096_/A _1213_/X sky130_fd_sc_hd__buf_2
X_2331_ _1222_/X _2330_/Y _2390_/D sky130_fd_sc_hd__nor2_4
X_2262_ _1649_/B _2262_/X sky130_fd_sc_hd__buf_2
X_2193_ _1726_/A _2191_/Y _2192_/Y _2193_/Y sky130_fd_sc_hd__o21ai_4
X_1977_ _1979_/A _2496_/Q _2497_/Q _1978_/C sky130_fd_sc_hd__a21o_4
X_2529_ _2528_/CLK _2529_/D _2529_/Q sky130_fd_sc_hd__dfxtp_4
X_1900_ _1900_/A _2547_/Q _2543_/D sky130_fd_sc_hd__and2_4
X_1831_ _1831_/A _1831_/B _1831_/Y sky130_fd_sc_hd__nand2_4
X_1762_ _1762_/A _1762_/B _1762_/Y sky130_fd_sc_hd__nand2_4
X_1693_ _1688_/Y _1690_/Y _1692_/X _1693_/Y sky130_fd_sc_hd__o21ai_4
X_2245_ _1219_/X _2245_/B _1691_/Y _2246_/A sky130_fd_sc_hd__nor3_4
X_2314_ _1637_/B _2311_/X _1420_/A _2313_/X _2402_/D sky130_fd_sc_hd__a2bb2o_4
X_2176_ _2174_/Y _1708_/X _2176_/C _2176_/Y sky130_fd_sc_hd__nand3_4
XPHY_121 sky130_fd_sc_hd__decap_3
XPHY_110 sky130_fd_sc_hd__decap_3
X_2030_ _2030_/A _2030_/X sky130_fd_sc_hd__buf_2
XPHY_1 sky130_fd_sc_hd__decap_3
X_1814_ _2578_/Q _1810_/X _1813_/X _1814_/X sky130_fd_sc_hd__o21a_4
X_1745_ _2300_/C _1703_/X _2179_/B _1744_/Y _1745_/X sky130_fd_sc_hd__a211o_4
X_1676_ _1726_/A _1676_/B _1676_/Y sky130_fd_sc_hd__nand2_4
X_2228_ _2217_/Y _2226_/Y _2227_/Y _2228_/Y sky130_fd_sc_hd__o21ai_4
X_2159_ _1960_/A _1635_/X _1632_/Y _2158_/Y _2159_/X sky130_fd_sc_hd__a211o_4
Xclkbuf_3_0_0_addressalyzerBlock.SPI_CLK clkbuf_2_0_0_addressalyzerBlock.SPI_CLK/X
+ clkbuf_4_1_0_addressalyzerBlock.SPI_CLK/A sky130_fd_sc_hd__clkbuf_1
X_1392_ _1379_/X _1385_/D _2063_/A _1392_/Y sky130_fd_sc_hd__a21oi_4
X_1530_ _1442_/X _1545_/A _1529_/Y _1530_/Y sky130_fd_sc_hd__nand3_4
X_1461_ _1460_/X _2333_/B sky130_fd_sc_hd__buf_2
X_2013_ _2002_/X _2003_/Y _2013_/C _2013_/D _2019_/B sky130_fd_sc_hd__nor4_4
X_1728_ _1697_/A _1689_/A _1728_/C _1728_/Y sky130_fd_sc_hd__nor3_4
X_1659_ _1659_/A _1660_/A sky130_fd_sc_hd__buf_2
X_2562_ _2562_/CLK _2562_/D _2562_/Q sky130_fd_sc_hd__dfxtp_4
X_2631_ _2626_/CLK _1341_/X _1242_/B sky130_fd_sc_hd__dfxtp_4
X_2493_ _2470_/CLK _2493_/D CLK_LED sky130_fd_sc_hd__dfxtp_4
X_1375_ _1236_/A _1373_/X _1374_/X _1375_/X sky130_fd_sc_hd__o21a_4
X_1444_ _2385_/Q _1444_/Y sky130_fd_sc_hd__inv_2
X_1513_ _1511_/Y _1512_/Y _1508_/X _1513_/X sky130_fd_sc_hd__a21o_4
X_1993_ _1993_/A _1993_/B _1993_/C _1993_/D _1994_/D sky130_fd_sc_hd__nand4_4
X_2545_ _2550_/CLK _2545_/D _2351_/A sky130_fd_sc_hd__dfxtp_4
X_2614_ _2618_/CLK _2614_/D _1409_/B sky130_fd_sc_hd__dfxtp_4
X_2476_ _2483_/CLK _2075_/Y _1990_/B sky130_fd_sc_hd__dfxtp_4
X_1358_ _1358_/A _2006_/B _1358_/C _1358_/Y sky130_fd_sc_hd__nand3_4
X_1427_ _1427_/A _1428_/D sky130_fd_sc_hd__buf_2
X_1289_ _1289_/A _1971_/A _1289_/C _1290_/A sky130_fd_sc_hd__nand3_4
X_2192_ _1762_/A _2437_/Q _2192_/Y sky130_fd_sc_hd__nand2_4
X_1212_ _1188_/A _2322_/A sky130_fd_sc_hd__buf_2
X_2330_ _2463_/Q _2385_/Q _2322_/A _2333_/B _2330_/Y sky130_fd_sc_hd__a22oi_4
X_2261_ _2243_/Y _2260_/Y _2258_/X _1914_/B _2248_/X _2427_/D
+ sky130_fd_sc_hd__o32ai_4
X_1976_ _1976_/A _1976_/B _1980_/A sky130_fd_sc_hd__nor2_4
X_2528_ _2528_/CLK _2528_/D _1933_/B sky130_fd_sc_hd__dfxtp_4
X_2459_ _2570_/CLK _2105_/X _2103_/A sky130_fd_sc_hd__dfxtp_4
Xclkbuf_4_0_0_m1_clk_local clkbuf_4_1_0_m1_clk_local/A _2519_/CLK
+ sky130_fd_sc_hd__clkbuf_1
X_1830_ _1179_/X _1735_/C _1735_/D _1830_/Y sky130_fd_sc_hd__nand3_4
X_1761_ _1739_/A _1762_/A sky130_fd_sc_hd__buf_2
X_1692_ _1691_/Y _1488_/X _1780_/B _1731_/B _1692_/X sky130_fd_sc_hd__a2bb2o_4
X_2313_ _2312_/X _2313_/X sky130_fd_sc_hd__buf_2
X_2244_ _2243_/Y _2244_/X sky130_fd_sc_hd__buf_2
X_2175_ _1232_/A _2175_/B _2176_/C sky130_fd_sc_hd__nand2_4
X_1959_ _1969_/A _2515_/Q _1959_/X sky130_fd_sc_hd__and2_4
XPHY_100 sky130_fd_sc_hd__decap_3
XPHY_122 sky130_fd_sc_hd__decap_3
XPHY_111 sky130_fd_sc_hd__decap_3
Xclkbuf_3_6_0_m1_clk_local clkbuf_3_7_0_m1_clk_local/A clkbuf_3_6_0_m1_clk_local/X
+ sky130_fd_sc_hd__clkbuf_1
XPHY_2 sky130_fd_sc_hd__decap_3
X_1813_ _1838_/A _1813_/X sky130_fd_sc_hd__buf_2
X_1744_ _1630_/X _1744_/B _1744_/Y sky130_fd_sc_hd__nor2_4
X_1675_ _1739_/A _1726_/A sky130_fd_sc_hd__buf_2
X_2227_ _1300_/B _1640_/X _1651_/X _1856_/A _2227_/Y sky130_fd_sc_hd__a2bb2oi_4
X_2089_ _2089_/A _2089_/Y sky130_fd_sc_hd__inv_2
X_2158_ _1703_/X _2158_/B _2158_/Y sky130_fd_sc_hd__nor2_4
X_1391_ _1274_/X _2063_/A sky130_fd_sc_hd__buf_2
X_1460_ _2390_/Q _1460_/X sky130_fd_sc_hd__buf_2
X_2012_ _2008_/A _2013_/D sky130_fd_sc_hd__buf_2
X_1727_ _1725_/X _1726_/Y _2593_/D sky130_fd_sc_hd__nand2_4
X_1658_ _1612_/X _1653_/Y _1657_/Y _1658_/Y sky130_fd_sc_hd__o21ai_4
X_1589_ _1426_/A _1590_/B sky130_fd_sc_hd__inv_2
X_2492_ _2372_/CLK _2492_/D _2492_/Q sky130_fd_sc_hd__dfxtp_4
X_2561_ _2550_/CLK _2561_/D _2561_/Q sky130_fd_sc_hd__dfxtp_4
X_2630_ _2477_/CLK _1343_/X _1242_/C sky130_fd_sc_hd__dfxtp_4
X_1512_ _1486_/A _1512_/Y sky130_fd_sc_hd__inv_2
X_1374_ _1374_/A _1374_/X sky130_fd_sc_hd__buf_2
X_1443_ _1443_/A _1445_/A sky130_fd_sc_hd__inv_2
X_1992_ _1992_/A _1992_/B _2060_/A _1992_/D _1993_/B sky130_fd_sc_hd__nor4_4
X_2544_ _2550_/CLK _1899_/X _2544_/Q sky130_fd_sc_hd__dfxtp_4
X_2475_ _2477_/CLK _2475_/D _2071_/A sky130_fd_sc_hd__dfxtp_4
X_2613_ _2370_/CLK _1419_/X _1232_/D sky130_fd_sc_hd__dfxtp_4
X_1357_ _1228_/Y _1350_/X _1349_/Y _1358_/C sky130_fd_sc_hd__o21ai_4
X_1426_ _1426_/A _1428_/C sky130_fd_sc_hd__buf_2
X_1288_ _1257_/X _1260_/Y _1225_/X _1289_/C sky130_fd_sc_hd__o21ai_4
X_2191_ _2351_/A _1739_/B _2190_/Y _2168_/Y _2191_/Y sky130_fd_sc_hd__a22oi_4
X_1211_ _2645_/Q _1194_/B _1210_/X _1211_/Y sky130_fd_sc_hd__o21ai_4
X_2260_ _1840_/B _1698_/A _1520_/X _2260_/Y sky130_fd_sc_hd__nand3_4
X_1975_ _1976_/A _1976_/B _1975_/C _2498_/D sky130_fd_sc_hd__nor3_4
X_1409_ _1409_/A _1409_/B _1409_/C _1409_/Y sky130_fd_sc_hd__nand3_4
X_2458_ _2570_/CLK _2106_/X _2105_/B sky130_fd_sc_hd__dfxtp_4
X_2527_ _2506_/CLK _2527_/D _2527_/Q sky130_fd_sc_hd__dfxtp_4
X_2389_ _2390_/CLK _2389_/D _1443_/A sky130_fd_sc_hd__dfxtp_4
Xclkbuf_4_0_0_addressalyzerBlock.SPI_CLK clkbuf_4_1_0_addressalyzerBlock.SPI_CLK/A
+ _2428_/CLK sky130_fd_sc_hd__clkbuf_1
X_1760_ _1758_/Y _1759_/Y _1673_/C _1760_/Y sky130_fd_sc_hd__a21oi_4
X_1691_ _2594_/Q _1691_/Y sky130_fd_sc_hd__inv_2
X_2312_ _1609_/B _1189_/Y _2245_/B _1694_/X _2312_/X sky130_fd_sc_hd__and4_4
X_2174_ _2151_/A _2174_/B _2174_/Y sky130_fd_sc_hd__nand2_4
X_2243_ _1609_/B _2243_/Y sky130_fd_sc_hd__inv_2
X_1889_ _1891_/A _2560_/Q _1889_/X sky130_fd_sc_hd__and2_4
X_1958_ _1969_/A _1958_/B _1958_/X sky130_fd_sc_hd__and2_4
Xclkbuf_3_5_0_addressalyzerBlock.SPI_CLK clkbuf_3_5_0_addressalyzerBlock.SPI_CLK/A
+ clkbuf_3_5_0_addressalyzerBlock.SPI_CLK/X sky130_fd_sc_hd__clkbuf_1
XPHY_123 sky130_fd_sc_hd__decap_3
XPHY_112 sky130_fd_sc_hd__decap_3
XPHY_101 sky130_fd_sc_hd__decap_3
XPHY_3 sky130_fd_sc_hd__decap_3
X_1674_ _1658_/Y _1661_/X _1673_/Y _1674_/Y sky130_fd_sc_hd__nand3_4
X_1743_ _2415_/Q _1744_/B sky130_fd_sc_hd__inv_2
X_1812_ _2578_/Q _1809_/X _1811_/X _2579_/D sky130_fd_sc_hd__o21a_4
X_2226_ _2222_/X _2225_/X _1471_/X _2226_/Y sky130_fd_sc_hd__a21oi_4
X_2088_ _1971_/A _2088_/B _2088_/X sky130_fd_sc_hd__and2_4
X_2157_ _2153_/Y _2156_/Y _1628_/X _2157_/X sky130_fd_sc_hd__a21o_4
X_1390_ _1395_/A _1390_/B _1390_/C _1390_/Y sky130_fd_sc_hd__nor3_4
X_2011_ _2011_/A _2013_/C sky130_fd_sc_hd__inv_2
X_1726_ _1726_/A _2593_/Q _1726_/Y sky130_fd_sc_hd__nand2_4
X_1657_ _1612_/X _2628_/Q _1656_/X _1657_/Y sky130_fd_sc_hd__a21oi_4
X_1588_ _1577_/X _1460_/X _1514_/X _1588_/Y sky130_fd_sc_hd__o21ai_4
X_2209_ _1611_/A _1385_/A _1654_/Y _2209_/X sky130_fd_sc_hd__a21o_4
X_2491_ _2470_/CLK _2019_/Y _2011_/A sky130_fd_sc_hd__dfxtp_4
X_2560_ _2554_/CLK _2560_/D _2560_/Q sky130_fd_sc_hd__dfxtp_4
X_1442_ _1434_/Y _1422_/A _1528_/A _1442_/X sky130_fd_sc_hd__a21o_4
X_1511_ _1505_/B _1511_/Y sky130_fd_sc_hd__inv_2
X_1373_ _1379_/A _1373_/B _1383_/C _1365_/D _1373_/X sky130_fd_sc_hd__and4_4
X_1709_ _1709_/A _1710_/B sky130_fd_sc_hd__inv_2
X_1991_ _1991_/A _1991_/B _1991_/C _1991_/D _1992_/D sky130_fd_sc_hd__nand4_4
X_2612_ _2390_/CLK _1455_/Y _2335_/B sky130_fd_sc_hd__dfxtp_4
X_2543_ _2550_/CLK _2543_/D _2543_/Q sky130_fd_sc_hd__dfxtp_4
X_2474_ _2477_/CLK _2474_/D _1991_/D sky130_fd_sc_hd__dfxtp_4
X_1425_ _2600_/Q _1570_/A sky130_fd_sc_hd__buf_2
X_1356_ _1356_/A _1358_/A sky130_fd_sc_hd__inv_2
X_1287_ _1277_/B _1289_/A sky130_fd_sc_hd__inv_2
X_1210_ _1206_/A _1178_/A _1210_/X sky130_fd_sc_hd__or2_4
X_2190_ _2172_/Y _2188_/Y _2189_/Y _2190_/Y sky130_fd_sc_hd__o21ai_4
X_1974_ _1978_/B _1973_/A _1973_/Y _1975_/C sky130_fd_sc_hd__a21oi_4
X_2457_ _2457_/CLK _2107_/X _2093_/B sky130_fd_sc_hd__dfxtp_4
X_1408_ _1395_/A _1408_/B _1407_/Y _1408_/Y sky130_fd_sc_hd__nor3_4
X_2388_ _2388_/CLK _2388_/D _1566_/A sky130_fd_sc_hd__dfxtp_4
X_2526_ _2528_/CLK _2526_/D MACRO_RD_SELECT[3] sky130_fd_sc_hd__dfxtp_4
X_1339_ _1274_/X _1339_/X sky130_fd_sc_hd__buf_2
X_1690_ _1697_/A _1728_/C _1689_/Y _1690_/Y sky130_fd_sc_hd__nor3_4
X_2311_ _2310_/X _2311_/X sky130_fd_sc_hd__buf_2
X_2242_ _2122_/Y _2239_/Y _2241_/Y _2434_/D sky130_fd_sc_hd__o21ai_4
X_2173_ _1534_/A _2553_/Q _2148_/X _2173_/Y sky130_fd_sc_hd__o21ai_4
X_1957_ _1969_/A _1957_/B _2509_/D sky130_fd_sc_hd__and2_4
X_1888_ _1891_/A _2561_/Q _2553_/D sky130_fd_sc_hd__and2_4
X_2509_ _2519_/CLK _2509_/D DATA_TO_HASH[2] sky130_fd_sc_hd__dfxtp_4
XPHY_124 sky130_fd_sc_hd__decap_3
XPHY_113 sky130_fd_sc_hd__decap_3
XPHY_102 sky130_fd_sc_hd__decap_3
X_1811_ _2579_/Q _1810_/X _1799_/X _1811_/X sky130_fd_sc_hd__o21a_4
XPHY_4 sky130_fd_sc_hd__decap_3
X_1673_ _1739_/A _2166_/A _1673_/C _1739_/B _1673_/Y sky130_fd_sc_hd__nor4_4
X_1742_ _1316_/B _1646_/X _1741_/Y _1742_/Y sky130_fd_sc_hd__o21ai_4
X_2225_ _1966_/A _1751_/A _1633_/X _2224_/Y _2225_/X sky130_fd_sc_hd__a211o_4
X_2087_ _1284_/X _2078_/X _2087_/Y sky130_fd_sc_hd__nor2_4