*** This is a chip_io smoke test with transient supply ramps

* Most models come from here:
 .lib ~/foss/pdks/sky130A/libs.tech/ngspice/sky130.lib.spice tt

****.include /home/mk/foss/pdks/sky130_fd_pr/models/corners/tt/discrete.spice

* Include chip_io .subckt extracted using Calibre:
 .include ../netlists/chip_io.extracted.ngspice

* This device is also missing from the libraries:
 .include ./sky130_fd_io__condiode.spice
 .include ./sky130_fd_pr__model__parasitic__diode_ps2nw.spice 
 .include ./sky130_fd_pr__model__parasitic__diode_pw2dn.spice
 .include ./sky130_fd_pr__model__parasitic__diode_ps2dn.spice

***************************************

*.SUBCKT sky130_fd_io__top_xres4v2 VSSD VDDIO VCCHIB VDDIO_Q ENABLE_H EN_VDDIO_SIG_H INP_SEL_H PAD PULLUP_H ENABLE_VDDIO DISABLE_PULLUP_H PAD_A_ESD_H VSSIO FILT_IN_H XRES_H_N TIE_WEAK_HI_H

*********************
Xsky130_fd_io__top_xres4v2
+ VSS		; VSSD 
+ VDD3V3	; VDDIO 
+ VDD1V8	; VCCHIB 
+ VDD3V3	; VDDIO_Q 
+ ONE3V3	; ENABLE_H 
+ ONE3V3	; EN_VDDIO_SIG_H 
+ ZERO		; INP_SEL_H 
+ PAD		; PAD 
+ OPEN1		; PULLUP_H 
+ ONE3V3	; ENABLE_VDDIO 
+ ZERO		; DISABLE_PULLUP_H 
+ OPEN2		; PAD_A_ESD_H 
+ VSS		; VSSIO 
+ OPEN3		; FILT_IN_H 
+ ZERO		; XRES_H_N 
+ OPEN4		; TIE_WEAK_HI_H
+ sky130_fd_io__top_xres4v2


vvss		VSS		0 		dc 	0
vvdd1v8		VDD1V8		0 		pwl	0 0 3u  1.8  1m 1.8
vvdd3v3		VDD3V3		0 		pwl	0 0 2u  3.3  1m 3.3

vzero		ZERO		0		dc	0
vone1v8		ONE1V8		0		pwl	0 0 5.5u 0 5.6u 1.8  1m 1.8
vone3v3		ONE3V3		0		pwl	0 0 5.5u 0 5.6u 3.3  1m 3.3

vout		OUT		0		pwl	0 0 8u 0  8.1u 1.8 11u 1.8 11.1u 0 15u 0
rload		PAD		0		1000K

.OPTION RSHUNT=1e15
**.OPTION SAVECURRENTS
.SAVE All(v)
.SAVE v(pad) v(out) i(vvdd3v3) i(vvdd1v8) v(vdd3v3) v(vdd1v8) v(ONE1V8) v(ONE3V3) i(vone1v8) i(vone3v3) i(vout) i(rload)
.TRAN 10n 15u


.END
