* NGSPICE file created from digital_pll.ext - technology: sky130A

* Black-box entry subcircuit for sky130_fd_sc_hd__decap_4 abstract view
.subckt sky130_fd_sc_hd__decap_4 VGND VPWR
.ends

* Black-box entry subcircuit for sky130_fd_sc_hd__buf_1 abstract view
.subckt sky130_fd_sc_hd__buf_1 A X VGND VPWR
.ends

* Black-box entry subcircuit for sky130_fd_sc_hd__decap_3 abstract view
.subckt sky130_fd_sc_hd__decap_3 VGND VPWR
.ends

* Black-box entry subcircuit for sky130_fd_sc_hd__or2_4 abstract view
.subckt sky130_fd_sc_hd__or2_4 A B X VGND VPWR
.ends

* Black-box entry subcircuit for sky130_fd_sc_hd__a211o_4 abstract view
.subckt sky130_fd_sc_hd__a211o_4 A1 A2 B1 C1 X VGND VPWR
.ends

* Black-box entry subcircuit for sky130_fd_sc_hd__o21ai_4 abstract view
.subckt sky130_fd_sc_hd__o21ai_4 A1 A2 B1 Y VGND VPWR
.ends

* Black-box entry subcircuit for sky130_fd_sc_hd__fill_2 abstract view
.subckt sky130_fd_sc_hd__fill_2 VGND VPWR
.ends

* Black-box entry subcircuit for sky130_fd_sc_hd__clkinv_1 abstract view
.subckt sky130_fd_sc_hd__clkinv_1 A Y VGND VPWR
.ends

* Black-box entry subcircuit for sky130_fd_sc_hd__fill_1 abstract view
.subckt sky130_fd_sc_hd__fill_1 VGND VPWR
.ends

* Black-box entry subcircuit for sky130_fd_sc_hd__decap_6 abstract view
.subckt sky130_fd_sc_hd__decap_6 VGND VPWR
.ends

* Black-box entry subcircuit for sky130_fd_sc_hd__decap_8 abstract view
.subckt sky130_fd_sc_hd__decap_8 VGND VPWR
.ends

* Black-box entry subcircuit for sky130_fd_sc_hd__decap_12 abstract view
.subckt sky130_fd_sc_hd__decap_12 VGND VPWR
.ends

* Black-box entry subcircuit for sky130_fd_sc_hd__a32o_4 abstract view
.subckt sky130_fd_sc_hd__a32o_4 A1 A2 A3 B1 B2 X VGND VPWR
.ends

* Black-box entry subcircuit for sky130_fd_sc_hd__and4_4 abstract view
.subckt sky130_fd_sc_hd__and4_4 A B C D X VGND VPWR
.ends

* Black-box entry subcircuit for sky130_fd_sc_hd__a2bb2o_4 abstract view
.subckt sky130_fd_sc_hd__a2bb2o_4 A1_N A2_N B1 B2 X VGND VPWR
.ends

* Black-box entry subcircuit for sky130_fd_sc_hd__einvp_2 abstract view
.subckt sky130_fd_sc_hd__einvp_2 A TE Z VGND VPWR
.ends

* Black-box entry subcircuit for sky130_fd_sc_hd__inv_8 abstract view
.subckt sky130_fd_sc_hd__inv_8 A Y VGND VPWR
.ends

* Black-box entry subcircuit for sky130_fd_sc_hd__einvn_8 abstract view
.subckt sky130_fd_sc_hd__einvn_8 A TE_B Z VGND VPWR
.ends

* Black-box entry subcircuit for sky130_fd_sc_hd__tapvpwrvgnd_1 abstract view
.subckt sky130_fd_sc_hd__tapvpwrvgnd_1 VGND VPWR
.ends

* Black-box entry subcircuit for sky130_fd_sc_hd__o21a_4 abstract view
.subckt sky130_fd_sc_hd__o21a_4 A1 A2 B1 X VGND VPWR
.ends

* Black-box entry subcircuit for sky130_fd_sc_hd__nor2_4 abstract view
.subckt sky130_fd_sc_hd__nor2_4 A B Y VGND VPWR
.ends

* Black-box entry subcircuit for sky130_fd_sc_hd__nand2_4 abstract view
.subckt sky130_fd_sc_hd__nand2_4 A B Y VGND VPWR
.ends

* Black-box entry subcircuit for sky130_fd_sc_hd__einvn_4 abstract view
.subckt sky130_fd_sc_hd__einvn_4 A TE_B Z VGND VPWR
.ends

* Black-box entry subcircuit for sky130_fd_sc_hd__a21bo_4 abstract view
.subckt sky130_fd_sc_hd__a21bo_4 A1 A2 B1_N X VGND VPWR
.ends

* Black-box entry subcircuit for sky130_fd_sc_hd__and2_4 abstract view
.subckt sky130_fd_sc_hd__and2_4 A B X VGND VPWR
.ends

* Black-box entry subcircuit for sky130_fd_sc_hd__clkbuf_2 abstract view
.subckt sky130_fd_sc_hd__clkbuf_2 A X VGND VPWR
.ends

* Black-box entry subcircuit for sky130_fd_sc_hd__and3_4 abstract view
.subckt sky130_fd_sc_hd__and3_4 A B C X VGND VPWR
.ends

* Black-box entry subcircuit for sky130_fd_sc_hd__or4_4 abstract view
.subckt sky130_fd_sc_hd__or4_4 A B C D X VGND VPWR
.ends

* Black-box entry subcircuit for sky130_fd_sc_hd__clkbuf_1 abstract view
.subckt sky130_fd_sc_hd__clkbuf_1 A X VGND VPWR
.ends

* Black-box entry subcircuit for sky130_fd_sc_hd__xnor2_4 abstract view
.subckt sky130_fd_sc_hd__xnor2_4 A B Y VGND VPWR
.ends

* Black-box entry subcircuit for sky130_fd_sc_hd__o22a_4 abstract view
.subckt sky130_fd_sc_hd__o22a_4 A1 A2 B1 B2 X VGND VPWR
.ends

* Black-box entry subcircuit for sky130_fd_sc_hd__nor4_4 abstract view
.subckt sky130_fd_sc_hd__nor4_4 A B C D Y VGND VPWR
.ends

* Black-box entry subcircuit for sky130_fd_sc_hd__dfrtp_4 abstract view
.subckt sky130_fd_sc_hd__dfrtp_4 D Q RESET_B CLK VGND VPWR
.ends

* Black-box entry subcircuit for sky130_fd_sc_hd__einvp_1 abstract view
.subckt sky130_fd_sc_hd__einvp_1 A TE Z VGND VPWR
.ends

* Black-box entry subcircuit for sky130_fd_sc_hd__nor3_4 abstract view
.subckt sky130_fd_sc_hd__nor3_4 A B C Y VGND VPWR
.ends

* Black-box entry subcircuit for sky130_fd_sc_hd__or3_4 abstract view
.subckt sky130_fd_sc_hd__or3_4 A B C X VGND VPWR
.ends

* Black-box entry subcircuit for sky130_fd_sc_hd__buf_2 abstract view
.subckt sky130_fd_sc_hd__buf_2 A X VGND VPWR
.ends

* Black-box entry subcircuit for sky130_fd_sc_hd__a21oi_4 abstract view
.subckt sky130_fd_sc_hd__a21oi_4 A1 A2 B1 Y VGND VPWR
.ends

* Black-box entry subcircuit for sky130_fd_sc_hd__a21o_4 abstract view
.subckt sky130_fd_sc_hd__a21o_4 A1 A2 B1 X VGND VPWR
.ends

* Black-box entry subcircuit for sky130_fd_sc_hd__xor2_4 abstract view
.subckt sky130_fd_sc_hd__xor2_4 A B X VGND VPWR
.ends

* Black-box entry subcircuit for sky130_fd_sc_hd__clkinv_2 abstract view
.subckt sky130_fd_sc_hd__clkinv_2 A Y VGND VPWR
.ends

* Black-box entry subcircuit for sky130_fd_sc_hd__nand4_4 abstract view
.subckt sky130_fd_sc_hd__nand4_4 A B C D Y VGND VPWR
.ends

* Black-box entry subcircuit for sky130_fd_sc_hd__clkinv_8 abstract view
.subckt sky130_fd_sc_hd__clkinv_8 A Y VGND VPWR
.ends

* Black-box entry subcircuit for sky130_fd_sc_hd__conb_1 abstract view
.subckt sky130_fd_sc_hd__conb_1 HI LO VGND VPWR
.ends

* Black-box entry subcircuit for sky130_fd_sc_hd__o32a_4 abstract view
.subckt sky130_fd_sc_hd__o32a_4 A1 A2 A3 B1 B2 X VGND VPWR
.ends

* Black-box entry subcircuit for sky130_fd_sc_hd__or2_2 abstract view
.subckt sky130_fd_sc_hd__or2_2 A B X VGND VPWR
.ends

.subckt digital_pll clockp[0] clockp[1] dco div[0] div[1] div[2] div[3] div[4] enable
+ ext_trim[0] ext_trim[10] ext_trim[11] ext_trim[12] ext_trim[13] ext_trim[14] ext_trim[15]
+ ext_trim[16] ext_trim[17] ext_trim[18] ext_trim[19] ext_trim[1] ext_trim[20] ext_trim[21]
+ ext_trim[22] ext_trim[23] ext_trim[24] ext_trim[25] ext_trim[2] ext_trim[3] ext_trim[4]
+ ext_trim[5] ext_trim[6] ext_trim[7] ext_trim[8] ext_trim[9] osc resetb VPWR VGND
XFILLER_13_111 VGND VPWR sky130_fd_sc_hd__decap_4
X_501_ _499_/A _501_/X VGND VPWR sky130_fd_sc_hd__buf_1
XFILLER_26_63 VGND VPWR sky130_fd_sc_hd__decap_3
X_432_ _432_/A _432_/B _465_/B VGND VPWR sky130_fd_sc_hd__or2_4
X_294_ _291_/A _290_/Y _293_/Y _292_/X _294_/X VGND VPWR sky130_fd_sc_hd__a211o_4
X_363_ _365_/A _367_/B _264_/Y _363_/Y VGND VPWR sky130_fd_sc_hd__o21ai_4
XFILLER_13_166 VGND VPWR sky130_fd_sc_hd__fill_2
Xringosc.dstage\[1\].id.delayint0 ringosc.dstage\[1\].id.delayen1/Z ringosc.dstage\[1\].id.delayen0/A
+ VGND VPWR sky130_fd_sc_hd__clkinv_1
XFILLER_27_214 VGND VPWR sky130_fd_sc_hd__fill_1
XFILLER_10_147 VGND VPWR sky130_fd_sc_hd__decap_6
XFILLER_10_136 VGND VPWR sky130_fd_sc_hd__decap_8
XFILLER_37_51 VGND VPWR sky130_fd_sc_hd__decap_8
XFILLER_37_62 VGND VPWR sky130_fd_sc_hd__decap_12
X_346_ _320_/Y _340_/Y _345_/X _415_/B _320_/A _346_/X VGND VPWR sky130_fd_sc_hd__a32o_4
X_415_ _395_/A _415_/B _415_/C _396_/C _415_/X VGND VPWR sky130_fd_sc_hd__and4_4
X_277_ _275_/X _276_/Y _275_/X _276_/Y _277_/X VGND VPWR sky130_fd_sc_hd__a2bb2o_4
XFILLER_5_184 VGND VPWR sky130_fd_sc_hd__decap_12
XFILLER_32_250 VGND VPWR sky130_fd_sc_hd__fill_1
Xringosc.dstage\[11\].id.delayen1 ringosc.dstage\[11\].id.delayen1/A _487_/X ringosc.dstage\[11\].id.delayen1/Z
+ VGND VPWR sky130_fd_sc_hd__einvp_2
XFILLER_9_66 VGND VPWR sky130_fd_sc_hd__fill_1
XFILLER_9_33 VGND VPWR sky130_fd_sc_hd__decap_8
X_329_ _329_/A _395_/D VGND VPWR sky130_fd_sc_hd__inv_8
XFILLER_11_220 VGND VPWR sky130_fd_sc_hd__decap_12
XFILLER_38_139 VGND VPWR sky130_fd_sc_hd__decap_4
XFILLER_37_172 VGND VPWR sky130_fd_sc_hd__decap_8
XFILLER_4_227 VGND VPWR sky130_fd_sc_hd__decap_12
Xringosc.dstage\[10\].id.delayenb0 ringosc.dstage\[10\].id.delaybuf0/X _422_/X ringosc.dstage\[10\].id.delayen0/Z
+ VGND VPWR sky130_fd_sc_hd__einvn_8
XFILLER_6_23 VGND VPWR sky130_fd_sc_hd__decap_8
Xringosc.dstage\[9\].id.delayenb0 ringosc.dstage\[9\].id.delaybuf0/X _421_/X ringosc.dstage\[9\].id.delayen0/Z
+ VGND VPWR sky130_fd_sc_hd__einvn_8
XFILLER_6_45 VGND VPWR sky130_fd_sc_hd__decap_4
XFILLER_13_3 VGND VPWR sky130_fd_sc_hd__decap_12
XFILLER_19_194 VGND VPWR sky130_fd_sc_hd__decap_4
XFILLER_34_120 VGND VPWR sky130_fd_sc_hd__decap_4
XFILLER_1_208 VGND VPWR sky130_fd_sc_hd__decap_12
XFILLER_25_142 VGND VPWR sky130_fd_sc_hd__decap_12
XFILLER_15_54 VGND VPWR sky130_fd_sc_hd__decap_6
XFILLER_0_230 VGND VPWR sky130_fd_sc_hd__decap_12
XPHY_170 VGND VPWR sky130_fd_sc_hd__tapvpwrvgnd_1
XPHY_181 VGND VPWR sky130_fd_sc_hd__tapvpwrvgnd_1
XPHY_192 VGND VPWR sky130_fd_sc_hd__tapvpwrvgnd_1
XFILLER_39_245 VGND VPWR sky130_fd_sc_hd__decap_6
X_500_ _499_/A _500_/X VGND VPWR sky130_fd_sc_hd__buf_1
X_362_ _365_/C _361_/X _264_/Y _521_/D VGND VPWR sky130_fd_sc_hd__o21a_4
XFILLER_13_123 VGND VPWR sky130_fd_sc_hd__decap_8
X_431_ _396_/C _403_/D _431_/C _415_/B _432_/B VGND VPWR sky130_fd_sc_hd__and4_4
XFILLER_42_63 VGND VPWR sky130_fd_sc_hd__decap_12
X_293_ div[3] _293_/B _293_/Y VGND VPWR sky130_fd_sc_hd__nor2_4
XFILLER_42_218 VGND VPWR sky130_fd_sc_hd__decap_12
XFILLER_12_55 VGND VPWR sky130_fd_sc_hd__decap_4
XFILLER_12_88 VGND VPWR sky130_fd_sc_hd__decap_4
XFILLER_18_215 VGND VPWR sky130_fd_sc_hd__decap_12
XFILLER_37_74 VGND VPWR sky130_fd_sc_hd__decap_12
X_276_ _369_/B _276_/B _276_/Y VGND VPWR sky130_fd_sc_hd__nand2_4
X_345_ _340_/A _340_/B _345_/X VGND VPWR sky130_fd_sc_hd__or2_4
X_414_ _456_/A _413_/X _417_/A VGND VPWR sky130_fd_sc_hd__or2_4
XFILLER_5_196 VGND VPWR sky130_fd_sc_hd__decap_12
X_259_ _522_/Q _311_/B VGND VPWR sky130_fd_sc_hd__inv_8
X_328_ _474_/D _308_/B _329_/A VGND VPWR sky130_fd_sc_hd__or2_4
XFILLER_20_210 VGND VPWR sky130_fd_sc_hd__decap_4
XFILLER_18_32 VGND VPWR sky130_fd_sc_hd__decap_12
XFILLER_11_232 VGND VPWR sky130_fd_sc_hd__decap_12
XFILLER_34_86 VGND VPWR sky130_fd_sc_hd__decap_6
XFILLER_38_107 VGND VPWR sky130_fd_sc_hd__decap_8
XFILLER_37_184 VGND VPWR sky130_fd_sc_hd__decap_3
XFILLER_4_239 VGND VPWR sky130_fd_sc_hd__decap_12
XFILLER_29_75 VGND VPWR sky130_fd_sc_hd__decap_4
Xringosc.dstage\[10\].id.delayenb1 ringosc.dstage\[10\].id.delaybuf0/X _484_/X ringosc.dstage\[10\].id.delayen1/Z
+ VGND VPWR sky130_fd_sc_hd__einvn_4
Xringosc.dstage\[9\].id.delayenb1 ringosc.dstage\[9\].id.delaybuf0/X _483_/X ringosc.dstage\[9\].id.delayen1/Z
+ VGND VPWR sky130_fd_sc_hd__einvn_4
XFILLER_28_162 VGND VPWR sky130_fd_sc_hd__fill_2
XFILLER_28_173 VGND VPWR sky130_fd_sc_hd__decap_4
XFILLER_25_110 VGND VPWR sky130_fd_sc_hd__fill_1
XFILLER_40_113 VGND VPWR sky130_fd_sc_hd__decap_4
XFILLER_40_135 VGND VPWR sky130_fd_sc_hd__decap_4
XFILLER_40_146 VGND VPWR sky130_fd_sc_hd__decap_6
XFILLER_15_99 VGND VPWR sky130_fd_sc_hd__decap_12
XFILLER_0_242 VGND VPWR sky130_fd_sc_hd__decap_6
XFILLER_16_154 VGND VPWR sky130_fd_sc_hd__fill_1
XPHY_160 VGND VPWR sky130_fd_sc_hd__tapvpwrvgnd_1
XPHY_171 VGND VPWR sky130_fd_sc_hd__tapvpwrvgnd_1
XPHY_182 VGND VPWR sky130_fd_sc_hd__tapvpwrvgnd_1
XPHY_193 VGND VPWR sky130_fd_sc_hd__tapvpwrvgnd_1
XFILLER_22_102 VGND VPWR sky130_fd_sc_hd__decap_4
XFILLER_22_113 VGND VPWR sky130_fd_sc_hd__decap_4
X_292_ div[3] _293_/B _291_/X _292_/X VGND VPWR sky130_fd_sc_hd__a21bo_4
X_361_ _365_/A _367_/B _361_/X VGND VPWR sky130_fd_sc_hd__and2_4
XFILLER_13_179 VGND VPWR sky130_fd_sc_hd__decap_4
X_430_ _395_/A _396_/B _415_/C _253_/A _432_/A VGND VPWR sky130_fd_sc_hd__and4_4
XFILLER_42_75 VGND VPWR sky130_fd_sc_hd__decap_12
XFILLER_3_58 VGND VPWR sky130_fd_sc_hd__decap_3
XFILLER_36_205 VGND VPWR sky130_fd_sc_hd__decap_8
XFILLER_8_150 VGND VPWR sky130_fd_sc_hd__decap_3
XFILLER_10_116 VGND VPWR sky130_fd_sc_hd__decap_4
XFILLER_18_227 VGND VPWR sky130_fd_sc_hd__decap_12
X_413_ _413_/A _403_/D _413_/X VGND VPWR sky130_fd_sc_hd__and2_4
XFILLER_37_86 VGND VPWR sky130_fd_sc_hd__decap_12
XFILLER_41_241 VGND VPWR sky130_fd_sc_hd__decap_3
X_275_ _249_/Y _250_/Y _249_/Y _250_/Y _275_/X VGND VPWR sky130_fd_sc_hd__a2bb2o_4
X_344_ _320_/Y _343_/X _342_/Y _431_/C _320_/A _344_/X VGND VPWR sky130_fd_sc_hd__a32o_4
XFILLER_5_175 VGND VPWR sky130_fd_sc_hd__decap_8
XFILLER_5_120 VGND VPWR sky130_fd_sc_hd__fill_2
XFILLER_15_219 VGND VPWR sky130_fd_sc_hd__decap_12
XFILLER_3_3 VGND VPWR sky130_fd_sc_hd__decap_12
XFILLER_2_112 VGND VPWR sky130_fd_sc_hd__fill_1
XFILLER_2_167 VGND VPWR sky130_fd_sc_hd__decap_12
XFILLER_0_15 VGND VPWR sky130_fd_sc_hd__decap_12
Xringosc.dstage\[4\].id.delayen0 ringosc.dstage\[4\].id.delayen0/A _407_/X ringosc.dstage\[4\].id.delayen0/Z
+ VGND VPWR sky130_fd_sc_hd__einvp_2
X_258_ _258_/A _316_/C VGND VPWR sky130_fd_sc_hd__inv_8
X_327_ _330_/A _396_/D VGND VPWR sky130_fd_sc_hd__inv_8
XFILLER_36_3 VGND VPWR sky130_fd_sc_hd__decap_12
XFILLER_20_222 VGND VPWR sky130_fd_sc_hd__decap_12
XFILLER_18_44 VGND VPWR sky130_fd_sc_hd__fill_1
XFILLER_34_32 VGND VPWR sky130_fd_sc_hd__decap_12
XFILLER_34_133 VGND VPWR sky130_fd_sc_hd__decap_6
XFILLER_25_199 VGND VPWR sky130_fd_sc_hd__fill_1
XFILLER_16_122 VGND VPWR sky130_fd_sc_hd__decap_8
XPHY_150 VGND VPWR sky130_fd_sc_hd__tapvpwrvgnd_1
XFILLER_16_199 VGND VPWR sky130_fd_sc_hd__fill_2
XPHY_161 VGND VPWR sky130_fd_sc_hd__tapvpwrvgnd_1
XPHY_172 VGND VPWR sky130_fd_sc_hd__tapvpwrvgnd_1
XPHY_183 VGND VPWR sky130_fd_sc_hd__tapvpwrvgnd_1
XPHY_194 VGND VPWR sky130_fd_sc_hd__tapvpwrvgnd_1
XFILLER_31_147 VGND VPWR sky130_fd_sc_hd__fill_1
Xringosc.dstage\[10\].id.delaybuf0 ringosc.dstage\[9\].id.delayen0/Z ringosc.dstage\[10\].id.delaybuf0/X
+ VGND VPWR sky130_fd_sc_hd__clkbuf_2
Xringosc.dstage\[9\].id.delaybuf0 ringosc.dstage\[8\].id.delayen0/Z ringosc.dstage\[9\].id.delaybuf0/X
+ VGND VPWR sky130_fd_sc_hd__clkbuf_2
Xringosc.dstage\[5\].id.delayenb0 ringosc.dstage\[5\].id.delaybuf1/A _408_/X ringosc.ibufp10/A
+ VGND VPWR sky130_fd_sc_hd__einvn_8
XFILLER_26_55 VGND VPWR sky130_fd_sc_hd__decap_8
XFILLER_42_87 VGND VPWR sky130_fd_sc_hd__decap_6
XFILLER_42_32 VGND VPWR sky130_fd_sc_hd__decap_12
XFILLER_9_118 VGND VPWR sky130_fd_sc_hd__decap_4
X_360_ _518_/Q _369_/B _519_/Q _367_/B VGND VPWR sky130_fd_sc_hd__and3_4
X_291_ _291_/A _290_/Y _291_/X VGND VPWR sky130_fd_sc_hd__or2_4
XFILLER_3_15 VGND VPWR sky130_fd_sc_hd__fill_2
X_489_ _454_/A _485_/X _488_/X _398_/X _489_/X VGND VPWR sky130_fd_sc_hd__or4_4
XFILLER_18_239 VGND VPWR sky130_fd_sc_hd__decap_12
X_412_ _431_/C _415_/B _396_/C _415_/C _456_/A VGND VPWR sky130_fd_sc_hd__and4_4
X_274_ _314_/D _314_/B _274_/X VGND VPWR sky130_fd_sc_hd__or2_4
X_343_ _342_/A _342_/B _343_/X VGND VPWR sky130_fd_sc_hd__or2_4
XFILLER_2_179 VGND VPWR sky130_fd_sc_hd__decap_12
XFILLER_0_27 VGND VPWR sky130_fd_sc_hd__decap_4
XFILLER_0_49 VGND VPWR sky130_fd_sc_hd__decap_4
Xringosc.dstage\[4\].id.delayen1 ringosc.dstage\[4\].id.delayen1/A _463_/X ringosc.dstage\[4\].id.delayen1/Z
+ VGND VPWR sky130_fd_sc_hd__einvp_2
X_326_ _525_/Q _377_/B _330_/A VGND VPWR sky130_fd_sc_hd__or2_4
X_257_ _308_/B _377_/B VGND VPWR sky130_fd_sc_hd__inv_8
XFILLER_29_3 VGND VPWR sky130_fd_sc_hd__decap_12
XFILLER_20_234 VGND VPWR sky130_fd_sc_hd__decap_12
XFILLER_34_44 VGND VPWR sky130_fd_sc_hd__decap_12
XFILLER_11_245 VGND VPWR sky130_fd_sc_hd__decap_6
XFILLER_34_99 VGND VPWR sky130_fd_sc_hd__fill_1
X_309_ _309_/A _415_/C VGND VPWR sky130_fd_sc_hd__inv_8
XFILLER_29_44 VGND VPWR sky130_fd_sc_hd__decap_4
XFILLER_28_186 VGND VPWR sky130_fd_sc_hd__decap_4
XFILLER_28_197 VGND VPWR sky130_fd_sc_hd__decap_4
XFILLER_29_88 VGND VPWR sky130_fd_sc_hd__decap_12
XFILLER_15_35 VGND VPWR sky130_fd_sc_hd__fill_1
XFILLER_25_134 VGND VPWR sky130_fd_sc_hd__fill_1
XFILLER_0_211 VGND VPWR sky130_fd_sc_hd__decap_6
XFILLER_16_145 VGND VPWR sky130_fd_sc_hd__fill_1
XPHY_140 VGND VPWR sky130_fd_sc_hd__tapvpwrvgnd_1
XPHY_151 VGND VPWR sky130_fd_sc_hd__tapvpwrvgnd_1
XPHY_162 VGND VPWR sky130_fd_sc_hd__tapvpwrvgnd_1
XPHY_173 VGND VPWR sky130_fd_sc_hd__tapvpwrvgnd_1
XPHY_184 VGND VPWR sky130_fd_sc_hd__tapvpwrvgnd_1
XPHY_195 VGND VPWR sky130_fd_sc_hd__tapvpwrvgnd_1
Xringosc.dstage\[10\].id.delaybuf1 ringosc.dstage\[10\].id.delaybuf0/X ringosc.dstage\[10\].id.delayen1/A
+ VGND VPWR sky130_fd_sc_hd__clkbuf_1
Xringosc.dstage\[9\].id.delaybuf1 ringosc.dstage\[9\].id.delaybuf0/X ringosc.dstage\[9\].id.delayen1/A
+ VGND VPWR sky130_fd_sc_hd__clkbuf_1
Xringosc.dstage\[5\].id.delayenb1 ringosc.dstage\[5\].id.delaybuf1/A _467_/X ringosc.dstage\[5\].id.delayen1/Z
+ VGND VPWR sky130_fd_sc_hd__einvn_4
XFILLER_11_3 VGND VPWR sky130_fd_sc_hd__decap_6
XFILLER_42_44 VGND VPWR sky130_fd_sc_hd__decap_12
X_290_ _286_/X _289_/Y _290_/Y VGND VPWR sky130_fd_sc_hd__xnor2_4
XFILLER_21_192 VGND VPWR sky130_fd_sc_hd__fill_2
X_488_ _488_/A _460_/A _394_/B _417_/A _488_/X VGND VPWR sky130_fd_sc_hd__or4_4
XFILLER_27_229 VGND VPWR sky130_fd_sc_hd__decap_12
XFILLER_41_221 VGND VPWR sky130_fd_sc_hd__decap_12
X_342_ _342_/A _342_/B _342_/Y VGND VPWR sky130_fd_sc_hd__nand2_4
X_411_ _389_/A _411_/B _479_/C VGND VPWR sky130_fd_sc_hd__or2_4
X_273_ _252_/Y _314_/B _314_/D _314_/B _530_/D VGND VPWR sky130_fd_sc_hd__a2bb2o_4
XFILLER_32_221 VGND VPWR sky130_fd_sc_hd__fill_1
XFILLER_23_243 VGND VPWR sky130_fd_sc_hd__fill_1
XFILLER_2_136 VGND VPWR sky130_fd_sc_hd__decap_12
X_325_ _325_/A _325_/Y VGND VPWR sky130_fd_sc_hd__inv_8
X_256_ _525_/Q _474_/D VGND VPWR sky130_fd_sc_hd__inv_8
XFILLER_20_246 VGND VPWR sky130_fd_sc_hd__decap_4
X_308_ _525_/Q _308_/B _309_/A VGND VPWR sky130_fd_sc_hd__or2_4
XFILLER_41_3 VGND VPWR sky130_fd_sc_hd__decap_12
XFILLER_37_198 VGND VPWR sky130_fd_sc_hd__decap_8
XFILLER_28_110 VGND VPWR sky130_fd_sc_hd__decap_12
XFILLER_28_132 VGND VPWR sky130_fd_sc_hd__decap_4
XFILLER_28_154 VGND VPWR sky130_fd_sc_hd__decap_8
XFILLER_3_220 VGND VPWR sky130_fd_sc_hd__decap_12
XFILLER_19_187 VGND VPWR sky130_fd_sc_hd__decap_4
XFILLER_31_79 VGND VPWR sky130_fd_sc_hd__decap_4
XPHY_130 VGND VPWR sky130_fd_sc_hd__tapvpwrvgnd_1
XPHY_141 VGND VPWR sky130_fd_sc_hd__tapvpwrvgnd_1
XPHY_152 VGND VPWR sky130_fd_sc_hd__tapvpwrvgnd_1
XPHY_163 VGND VPWR sky130_fd_sc_hd__tapvpwrvgnd_1
XPHY_174 VGND VPWR sky130_fd_sc_hd__tapvpwrvgnd_1
XPHY_185 VGND VPWR sky130_fd_sc_hd__tapvpwrvgnd_1
XPHY_196 VGND VPWR sky130_fd_sc_hd__tapvpwrvgnd_1
XFILLER_22_127 VGND VPWR sky130_fd_sc_hd__decap_4
XFILLER_7_92 VGND VPWR sky130_fd_sc_hd__decap_8
XFILLER_42_56 VGND VPWR sky130_fd_sc_hd__decap_6
X_487_ _388_/Y _486_/Y _473_/Y dco ext_trim[24] _487_/X VGND VPWR sky130_fd_sc_hd__a32o_4
XFILLER_8_142 VGND VPWR sky130_fd_sc_hd__decap_8
XFILLER_12_182 VGND VPWR sky130_fd_sc_hd__decap_4
XFILLER_35_230 VGND VPWR sky130_fd_sc_hd__decap_4
Xringosc.dstage\[5\].id.delaybuf0 ringosc.dstage\[4\].id.delayen0/Z ringosc.dstage\[5\].id.delaybuf1/A
+ VGND VPWR sky130_fd_sc_hd__clkbuf_2
XFILLER_10_108 VGND VPWR sky130_fd_sc_hd__fill_1
XFILLER_12_15 VGND VPWR sky130_fd_sc_hd__decap_12
Xringosc.dstage\[1\].id.delayenb0 ringosc.dstage\[1\].id.delayenb0/A _392_/X ringosc.dstage\[1\].id.delayen0/Z
+ VGND VPWR sky130_fd_sc_hd__einvn_8
XFILLER_41_233 VGND VPWR sky130_fd_sc_hd__decap_8
X_272_ _252_/Y _264_/Y _314_/C _264_/Y _272_/X VGND VPWR sky130_fd_sc_hd__a2bb2o_4
X_410_ _413_/A _378_/A _411_/B VGND VPWR sky130_fd_sc_hd__and2_4
X_341_ _396_/B _306_/A _340_/Y _342_/B VGND VPWR sky130_fd_sc_hd__o21a_4
Xringosc.dstage\[8\].id.delayint0 ringosc.dstage\[8\].id.delayen1/Z ringosc.dstage\[8\].id.delayen0/A
+ VGND VPWR sky130_fd_sc_hd__clkinv_1
XFILLER_5_123 VGND VPWR sky130_fd_sc_hd__decap_12
XFILLER_5_112 VGND VPWR sky130_fd_sc_hd__decap_8
XFILLER_17_230 VGND VPWR sky130_fd_sc_hd__decap_12
XFILLER_32_200 VGND VPWR sky130_fd_sc_hd__decap_12
XFILLER_4_60 VGND VPWR sky130_fd_sc_hd__decap_4
XFILLER_4_93 VGND VPWR sky130_fd_sc_hd__fill_1
XFILLER_2_148 VGND VPWR sky130_fd_sc_hd__decap_4
XFILLER_14_211 VGND VPWR sky130_fd_sc_hd__decap_3
X_324_ _474_/D _318_/B _525_/Q _306_/A _325_/A VGND VPWR sky130_fd_sc_hd__o22a_4
X_255_ _415_/B _396_/B VGND VPWR sky130_fd_sc_hd__inv_8
XFILLER_1_181 VGND VPWR sky130_fd_sc_hd__fill_2
XFILLER_1_3 VGND VPWR sky130_fd_sc_hd__decap_12
X_307_ _431_/C _415_/B _446_/B VGND VPWR sky130_fd_sc_hd__or2_4
XFILLER_34_3 VGND VPWR sky130_fd_sc_hd__decap_12
XFILLER_20_15 VGND VPWR sky130_fd_sc_hd__decap_12
XFILLER_20_59 VGND VPWR sky130_fd_sc_hd__decap_12
XFILLER_28_122 VGND VPWR sky130_fd_sc_hd__fill_1
XFILLER_29_57 VGND VPWR sky130_fd_sc_hd__decap_4
XFILLER_3_232 VGND VPWR sky130_fd_sc_hd__decap_12
XFILLER_19_155 VGND VPWR sky130_fd_sc_hd__decap_12
XFILLER_19_177 VGND VPWR sky130_fd_sc_hd__decap_6
XFILLER_15_15 VGND VPWR sky130_fd_sc_hd__decap_12
XFILLER_40_106 VGND VPWR sky130_fd_sc_hd__decap_4
XFILLER_31_58 VGND VPWR sky130_fd_sc_hd__decap_3
XFILLER_33_191 VGND VPWR sky130_fd_sc_hd__decap_4
XPHY_131 VGND VPWR sky130_fd_sc_hd__tapvpwrvgnd_1
XPHY_120 VGND VPWR sky130_fd_sc_hd__tapvpwrvgnd_1
XPHY_142 VGND VPWR sky130_fd_sc_hd__tapvpwrvgnd_1
XPHY_153 VGND VPWR sky130_fd_sc_hd__tapvpwrvgnd_1
XPHY_164 VGND VPWR sky130_fd_sc_hd__tapvpwrvgnd_1
XPHY_175 VGND VPWR sky130_fd_sc_hd__tapvpwrvgnd_1
XFILLER_31_106 VGND VPWR sky130_fd_sc_hd__decap_4
XPHY_186 VGND VPWR sky130_fd_sc_hd__tapvpwrvgnd_1
XPHY_197 VGND VPWR sky130_fd_sc_hd__tapvpwrvgnd_1
XPHY_0 VGND VPWR sky130_fd_sc_hd__decap_3
XFILLER_22_117 VGND VPWR sky130_fd_sc_hd__fill_1
XFILLER_30_194 VGND VPWR sky130_fd_sc_hd__decap_4
XFILLER_7_71 VGND VPWR sky130_fd_sc_hd__decap_4
XFILLER_21_150 VGND VPWR sky130_fd_sc_hd__fill_1
XFILLER_8_154 VGND VPWR sky130_fd_sc_hd__decap_12
XFILLER_16_91 VGND VPWR sky130_fd_sc_hd__fill_1
X_486_ _451_/A _486_/B _479_/A _485_/X _486_/Y VGND VPWR sky130_fd_sc_hd__nor4_4
Xringosc.dstage\[5\].id.delaybuf1 ringosc.dstage\[5\].id.delaybuf1/A ringosc.dstage\[5\].id.delayen1/A
+ VGND VPWR sky130_fd_sc_hd__clkbuf_1
XFILLER_12_27 VGND VPWR sky130_fd_sc_hd__decap_4
Xringosc.dstage\[1\].id.delayenb1 ringosc.dstage\[1\].id.delayenb0/A _444_/X ringosc.dstage\[1\].id.delayen1/Z
+ VGND VPWR sky130_fd_sc_hd__einvn_4
XFILLER_18_209 VGND VPWR sky130_fd_sc_hd__decap_4
XFILLER_41_245 VGND VPWR sky130_fd_sc_hd__decap_6
X_271_ _359_/B _264_/Y _276_/B _264_/Y _271_/X VGND VPWR sky130_fd_sc_hd__a2bb2o_4
X_340_ _340_/A _340_/B _340_/Y VGND VPWR sky130_fd_sc_hd__nand2_4
XFILLER_5_135 VGND VPWR sky130_fd_sc_hd__fill_1
XFILLER_17_242 VGND VPWR sky130_fd_sc_hd__fill_2
XFILLER_32_212 VGND VPWR sky130_fd_sc_hd__fill_2
X_469_ _423_/X _479_/A _469_/X VGND VPWR sky130_fd_sc_hd__or2_4
Xringosc.dstage\[1\].id.delayen0 ringosc.dstage\[1\].id.delayen0/A _392_/X ringosc.dstage\[1\].id.delayen0/Z
+ VGND VPWR sky130_fd_sc_hd__einvp_2
XFILLER_23_15 VGND VPWR sky130_fd_sc_hd__decap_12
XFILLER_23_245 VGND VPWR sky130_fd_sc_hd__decap_6
XFILLER_13_70 VGND VPWR sky130_fd_sc_hd__decap_3
X_323_ _316_/C _306_/A _322_/Y _353_/A VGND VPWR sky130_fd_sc_hd__o21ai_4
X_254_ _431_/C _395_/A VGND VPWR sky130_fd_sc_hd__inv_8
XFILLER_18_15 VGND VPWR sky130_fd_sc_hd__decap_12
XFILLER_18_59 VGND VPWR sky130_fd_sc_hd__decap_4
XFILLER_7_208 VGND VPWR sky130_fd_sc_hd__decap_12
X_306_ _306_/A _318_/B VGND VPWR sky130_fd_sc_hd__inv_8
XFILLER_27_3 VGND VPWR sky130_fd_sc_hd__decap_12
XFILLER_1_62 VGND VPWR sky130_fd_sc_hd__decap_4
XFILLER_20_27 VGND VPWR sky130_fd_sc_hd__decap_4
XFILLER_28_145 VGND VPWR sky130_fd_sc_hd__decap_8
XFILLER_19_123 VGND VPWR sky130_fd_sc_hd__decap_6
XFILLER_19_167 VGND VPWR sky130_fd_sc_hd__decap_3
XFILLER_35_90 VGND VPWR sky130_fd_sc_hd__decap_8
XFILLER_15_27 VGND VPWR sky130_fd_sc_hd__decap_8
XFILLER_33_181 VGND VPWR sky130_fd_sc_hd__fill_2
XFILLER_31_15 VGND VPWR sky130_fd_sc_hd__decap_12
XPHY_132 VGND VPWR sky130_fd_sc_hd__tapvpwrvgnd_1
XPHY_121 VGND VPWR sky130_fd_sc_hd__tapvpwrvgnd_1
XPHY_110 VGND VPWR sky130_fd_sc_hd__tapvpwrvgnd_1
XPHY_143 VGND VPWR sky130_fd_sc_hd__tapvpwrvgnd_1
XPHY_154 VGND VPWR sky130_fd_sc_hd__tapvpwrvgnd_1
XPHY_165 VGND VPWR sky130_fd_sc_hd__tapvpwrvgnd_1
XPHY_176 VGND VPWR sky130_fd_sc_hd__tapvpwrvgnd_1
XPHY_187 VGND VPWR sky130_fd_sc_hd__tapvpwrvgnd_1
XPHY_198 VGND VPWR sky130_fd_sc_hd__tapvpwrvgnd_1
XFILLER_31_118 VGND VPWR sky130_fd_sc_hd__decap_4
XFILLER_39_207 VGND VPWR sky130_fd_sc_hd__decap_12
XPHY_1 VGND VPWR sky130_fd_sc_hd__decap_3
XFILLER_26_15 VGND VPWR sky130_fd_sc_hd__decap_12
XFILLER_13_118 VGND VPWR sky130_fd_sc_hd__decap_4
XFILLER_21_184 VGND VPWR sky130_fd_sc_hd__decap_8
X_485_ _395_/D _413_/A _478_/B _389_/A _485_/X VGND VPWR sky130_fd_sc_hd__a211o_4
XFILLER_8_166 VGND VPWR sky130_fd_sc_hd__decap_12
XFILLER_35_243 VGND VPWR sky130_fd_sc_hd__fill_1
X_270_ _249_/Y _264_/Y _250_/A _264_/Y _533_/D VGND VPWR sky130_fd_sc_hd__a2bb2o_4
X_468_ _413_/X _450_/B _479_/A VGND VPWR sky130_fd_sc_hd__or2_4
Xringosc.dstage\[1\].id.delayen1 ringosc.dstage\[1\].id.delayen1/A _444_/X ringosc.dstage\[1\].id.delayen1/Z
+ VGND VPWR sky130_fd_sc_hd__einvp_2
X_399_ _450_/A _398_/X _399_/X VGND VPWR sky130_fd_sc_hd__or2_4
XFILLER_23_27 VGND VPWR sky130_fd_sc_hd__decap_12
XFILLER_2_106 VGND VPWR sky130_fd_sc_hd__decap_6
Xringosc.dstage\[1\].id.delaybuf0 ringosc.dstage\[0\].id.delayen0/Z ringosc.dstage\[1\].id.delayenb0/A
+ VGND VPWR sky130_fd_sc_hd__clkbuf_2
X_322_ _522_/Q _321_/X _322_/Y VGND VPWR sky130_fd_sc_hd__nand2_4
XFILLER_13_60 VGND VPWR sky130_fd_sc_hd__fill_1
X_253_ _253_/A _396_/C VGND VPWR sky130_fd_sc_hd__inv_8
Xringosc.dstage\[4\].id.delayint0 ringosc.dstage\[4\].id.delayen1/Z ringosc.dstage\[4\].id.delayen0/A
+ VGND VPWR sky130_fd_sc_hd__clkinv_1
XFILLER_18_27 VGND VPWR sky130_fd_sc_hd__decap_4
XFILLER_34_15 VGND VPWR sky130_fd_sc_hd__decap_12
XFILLER_34_59 VGND VPWR sky130_fd_sc_hd__decap_4
X_305_ _305_/A _313_/D _306_/A VGND VPWR sky130_fd_sc_hd__or2_4
XFILLER_40_80 VGND VPWR sky130_fd_sc_hd__decap_12
XFILLER_29_15 VGND VPWR sky130_fd_sc_hd__decap_12
XFILLER_3_245 VGND VPWR sky130_fd_sc_hd__decap_6
XFILLER_34_149 VGND VPWR sky130_fd_sc_hd__decap_4
XFILLER_35_80 VGND VPWR sky130_fd_sc_hd__fill_1
XFILLER_15_39 VGND VPWR sky130_fd_sc_hd__decap_6
Xringosc.dstage\[9\].id.delayen0 ringosc.dstage\[9\].id.delayen0/A _421_/X ringosc.dstage\[9\].id.delayen0/Z
+ VGND VPWR sky130_fd_sc_hd__einvp_2
XPHY_100 VGND VPWR sky130_fd_sc_hd__tapvpwrvgnd_1
XFILLER_16_105 VGND VPWR sky130_fd_sc_hd__decap_8
XFILLER_16_149 VGND VPWR sky130_fd_sc_hd__decap_4
XPHY_133 VGND VPWR sky130_fd_sc_hd__tapvpwrvgnd_1
XPHY_122 VGND VPWR sky130_fd_sc_hd__tapvpwrvgnd_1
XPHY_111 VGND VPWR sky130_fd_sc_hd__tapvpwrvgnd_1
XPHY_144 VGND VPWR sky130_fd_sc_hd__tapvpwrvgnd_1
XPHY_155 VGND VPWR sky130_fd_sc_hd__tapvpwrvgnd_1
XPHY_166 VGND VPWR sky130_fd_sc_hd__tapvpwrvgnd_1
XPHY_177 VGND VPWR sky130_fd_sc_hd__tapvpwrvgnd_1
XPHY_188 VGND VPWR sky130_fd_sc_hd__tapvpwrvgnd_1
XFILLER_24_171 VGND VPWR sky130_fd_sc_hd__fill_2
XPHY_199 VGND VPWR sky130_fd_sc_hd__tapvpwrvgnd_1
XFILLER_39_219 VGND VPWR sky130_fd_sc_hd__decap_12
XPHY_2 VGND VPWR sky130_fd_sc_hd__decap_3
XFILLER_7_84 VGND VPWR sky130_fd_sc_hd__fill_1
XFILLER_30_163 VGND VPWR sky130_fd_sc_hd__decap_4
XFILLER_26_27 VGND VPWR sky130_fd_sc_hd__decap_4
XFILLER_42_15 VGND VPWR sky130_fd_sc_hd__decap_12
XFILLER_16_93 VGND VPWR sky130_fd_sc_hd__decap_12
X_484_ _253_/A dco _262_/Y ext_trim[23] _484_/X VGND VPWR sky130_fd_sc_hd__o22a_4
XFILLER_8_178 VGND VPWR sky130_fd_sc_hd__decap_12
XFILLER_32_70 VGND VPWR sky130_fd_sc_hd__decap_4
XFILLER_32_81 VGND VPWR sky130_fd_sc_hd__decap_8
XFILLER_37_15 VGND VPWR sky130_fd_sc_hd__decap_12
XFILLER_26_233 VGND VPWR sky130_fd_sc_hd__decap_12
XFILLER_37_59 VGND VPWR sky130_fd_sc_hd__fill_2
X_467_ dco ext_trim[18] _466_/X _467_/X VGND VPWR sky130_fd_sc_hd__a21bo_4
X_536_ _536_/D _536_/Q _512_/X _513_/A VGND VPWR sky130_fd_sc_hd__dfrtp_4
X_398_ _395_/X _397_/X _398_/X VGND VPWR sky130_fd_sc_hd__or2_4
XFILLER_23_39 VGND VPWR sky130_fd_sc_hd__fill_1
Xringosc.dstage\[1\].id.delaybuf1 ringosc.dstage\[1\].id.delayenb0/A ringosc.dstage\[1\].id.delayen1/A
+ VGND VPWR sky130_fd_sc_hd__clkbuf_1
XFILLER_14_203 VGND VPWR sky130_fd_sc_hd__decap_8
X_252_ _252_/A _252_/Y VGND VPWR sky130_fd_sc_hd__inv_8
X_321_ _316_/C _306_/A _258_/A _318_/B _321_/X VGND VPWR sky130_fd_sc_hd__o22a_4
XFILLER_1_173 VGND VPWR sky130_fd_sc_hd__decap_8
XFILLER_1_184 VGND VPWR sky130_fd_sc_hd__decap_12
XFILLER_38_80 VGND VPWR sky130_fd_sc_hd__decap_12
X_519_ _368_/X _519_/Q _506_/X _513_/A VGND VPWR sky130_fd_sc_hd__dfrtp_4
XFILLER_34_27 VGND VPWR sky130_fd_sc_hd__decap_4
X_304_ div[4] _299_/X _303_/X _313_/D VGND VPWR sky130_fd_sc_hd__o21ai_4
XFILLER_29_27 VGND VPWR sky130_fd_sc_hd__decap_8
XFILLER_42_161 VGND VPWR sky130_fd_sc_hd__decap_12
XFILLER_42_150 VGND VPWR sky130_fd_sc_hd__decap_4
XFILLER_34_139 VGND VPWR sky130_fd_sc_hd__fill_1
XFILLER_35_70 VGND VPWR sky130_fd_sc_hd__decap_3
XFILLER_32_3 VGND VPWR sky130_fd_sc_hd__decap_12
XFILLER_25_106 VGND VPWR sky130_fd_sc_hd__decap_4
XFILLER_18_180 VGND VPWR sky130_fd_sc_hd__decap_4
XFILLER_0_249 VGND VPWR sky130_fd_sc_hd__fill_2
Xringosc.dstage\[9\].id.delayen1 ringosc.dstage\[9\].id.delayen1/A _483_/X ringosc.dstage\[9\].id.delayen1/Z
+ VGND VPWR sky130_fd_sc_hd__einvp_2
XPHY_123 VGND VPWR sky130_fd_sc_hd__tapvpwrvgnd_1
XPHY_112 VGND VPWR sky130_fd_sc_hd__tapvpwrvgnd_1
XPHY_101 VGND VPWR sky130_fd_sc_hd__tapvpwrvgnd_1
XPHY_134 VGND VPWR sky130_fd_sc_hd__tapvpwrvgnd_1
XFILLER_16_139 VGND VPWR sky130_fd_sc_hd__decap_6
XPHY_145 VGND VPWR sky130_fd_sc_hd__tapvpwrvgnd_1
XPHY_156 VGND VPWR sky130_fd_sc_hd__tapvpwrvgnd_1
XPHY_167 VGND VPWR sky130_fd_sc_hd__tapvpwrvgnd_1
XPHY_178 VGND VPWR sky130_fd_sc_hd__tapvpwrvgnd_1
XPHY_189 VGND VPWR sky130_fd_sc_hd__tapvpwrvgnd_1
XFILLER_21_72 VGND VPWR sky130_fd_sc_hd__decap_8
XPHY_3 VGND VPWR sky130_fd_sc_hd__decap_3
XFILLER_42_27 VGND VPWR sky130_fd_sc_hd__decap_4
XFILLER_21_164 VGND VPWR sky130_fd_sc_hd__decap_4
XFILLER_21_175 VGND VPWR sky130_fd_sc_hd__decap_8
XFILLER_29_242 VGND VPWR sky130_fd_sc_hd__fill_2
X_483_ dco ext_trim[22] _482_/X _483_/X VGND VPWR sky130_fd_sc_hd__a21bo_4
XFILLER_32_93 VGND VPWR sky130_fd_sc_hd__decap_3
XFILLER_35_223 VGND VPWR sky130_fd_sc_hd__decap_4