*** EFABLESS TEST CASE *** ,  

* Most models come from here:
 .lib ~/foss/pdks/sky130A/libs.tech/ngspice/sky130.lib.spice tt

*.include /home/mk/foss/pdks/sky130_fd_pr/models/corners/tt/discrete.spice

* Include  .subckt extracted using Calibre:
 .include ../netlists/sky130_ef_io__vddio_hvc_clamped_pad.extracted.ngspice
 
* This device is also missing from the libraries:
* .include ./sky130_fd_io__condiode.spice
 .include ./sky130_fd_pr__model__parasitic__diode_ps2nw.spice 
 .include ./sky130_fd_pr__model__parasitic__diode_pw2dn.spice
 .include ./sky130_fd_pr__model__parasitic__diode_ps2dn.spice
 
**.SUBCKT sky130_ef_io__vddio_hvc_clamped_pad VSSD VSSIO VDDIO VSSA AMUXBUS_B AMUXBUS_A VSSIO_Q VSWITCH VCCHIB VCCD VDDA


***************************************
Xsky130_ef_io__vddio_hvc_clamped_pad 
+ VSS		; VSSD 
+ VSS		; VSSIO 
+ VDD3V3	; VDDIO 
+ VSS		; VSSA 
+ OPEN1		; AMUXBUS_B 
+ OPEN2		; AMUXBUS_A 
+ VSS		; VSSIO_Q 
+ VDD3V3	; VSWITCH 
+ VDD1V8	; VCCHIB 
+ VDD1V8	; VCCD 
+ VDD3V3	; VDDA 
+ sky130_ef_io__vddio_hvc_clamped_pad


vvss		VSS		0 		dc 	0
vvdd1v8		VDD1V8		0 		pwl	0 0 3u 0 3.001u 1.8  1m 1.8
vvdd3v3		VDD3V3		0 		pwl	0 0 2u 3.3  1m 3.3

vzero		ZERO		0		dc	0
vone1v8		ONE1V8		0		pwl	0 0 5.5u 0 5.6u 1.8  1m 1.8
vone3v3		ONE3V3		0		pwl	0 0 5.5u 0 5.6u 3.3  1m 3.3

vout		OUT		0		pwl	0 0 8u 0  8.1u 1.8 11u 1.8 11.1u 0 15u 0
rload		PAD		0		100K

*.OPTION RSHUNT=1e15
*.OPTION SAVECURRENTS
.SAVE ALL

*.OPTION ngbehavior=hs
.SAVE v(pad) v(out) i(vvdd3v3) i(vvdd1v8) v(vdd3v3) v(vdd1v8) v(ONE1V8) v(ONE3V3) i(vone1v8) i(vone3v3) i(vout) i(rload)
.TRAN 10n 15u

*.control
*set ngbehavior=hs
*tran 1u 15u
*plot v(pad) v(out) 
*Plot v(vdd3v3) v(vdd1v8)
*plot i(vvdd3v3) i(vvdd1v8)
*.endc

.END
