* NGSPICE file created from sky130_fd_io__top_gpiov2.ext - technology: sky130A

.subckt sky130_fd_io__hvsbt_inv_x1 OUT VPWR VGND VSUBS a_119_118# w_n46_415#
X0 OUT a_119_118# VPWR w_n46_415# sky130_fd_pr__pfet_g5v0d10v5 w=1e+06u l=600000u
X1 OUT a_119_118# VPWR w_n46_415# sky130_fd_pr__pfet_g5v0d10v5 w=1e+06u l=600000u
X2 OUT a_119_118# VGND VSUBS sky130_fd_pr__nfet_g5v0d10v5 w=700000u l=600000u
.ends

.subckt sky130_fd_io__hvsbt_xor VPWR VGND IN0 IN1 OUT VSUBS w_95_503#
X0 a_862_569# a_161_167# OUT w_95_503# sky130_fd_pr__pfet_g5v0d10v5 w=1e+06u l=600000u
X1 a_862_167# a_566_375# OUT VSUBS sky130_fd_pr__nfet_g5v0d10v5 w=700000u l=600000u
X2 VPWR IN1 a_862_569# w_95_503# sky130_fd_pr__pfet_g5v0d10v5 w=1e+06u l=600000u
X3 a_510_569# IN0 VPWR w_95_503# sky130_fd_pr__pfet_g5v0d10v5 w=1e+06u l=600000u
X4 VGND a_161_167# a_862_167# VSUBS sky130_fd_pr__nfet_g5v0d10v5 w=700000u l=600000u
X5 a_510_167# IN0 VGND VSUBS sky130_fd_pr__nfet_g5v0d10v5 w=700000u l=600000u
X6 VPWR IN0 a_161_167# w_95_503# sky130_fd_pr__pfet_g5v0d10v5 w=1e+06u l=600000u
X7 OUT a_566_375# a_510_569# w_95_503# sky130_fd_pr__pfet_g5v0d10v5 w=1e+06u l=600000u
X8 a_566_375# IN1 VPWR w_95_503# sky130_fd_pr__pfet_g5v0d10v5 w=1e+06u l=600000u
X9 a_862_569# a_161_167# OUT w_95_503# sky130_fd_pr__pfet_g5v0d10v5 w=1e+06u l=600000u
X10 VGND IN0 a_161_167# VSUBS sky130_fd_pr__nfet_g5v0d10v5 w=700000u l=600000u
X11 OUT IN1 a_510_167# VSUBS sky130_fd_pr__nfet_g5v0d10v5 w=700000u l=600000u
X12 a_566_375# IN1 VGND VSUBS sky130_fd_pr__nfet_g5v0d10v5 w=700000u l=600000u
X13 VPWR IN1 a_862_569# w_95_503# sky130_fd_pr__pfet_g5v0d10v5 w=1e+06u l=600000u
X14 a_510_569# IN0 VPWR w_95_503# sky130_fd_pr__pfet_g5v0d10v5 w=1e+06u l=600000u
X15 OUT a_566_375# a_510_569# w_95_503# sky130_fd_pr__pfet_g5v0d10v5 w=1e+06u l=600000u
X16 a_566_375# IN1 VPWR w_95_503# sky130_fd_pr__pfet_g5v0d10v5 w=1e+06u l=600000u
X17 VPWR IN0 a_161_167# w_95_503# sky130_fd_pr__pfet_g5v0d10v5 w=1e+06u l=600000u
.ends

.subckt sky130_fd_io__hvsbt_nor IN0 VSUBS a_66_482# a_66_144# w_0_415# a_295_118#
+ a_239_144#
X0 a_239_482# IN0 a_66_482# w_0_415# sky130_fd_pr__pfet_g5v0d10v5 w=1e+06u l=600000u
X1 a_239_144# a_295_118# a_239_482# w_0_415# sky130_fd_pr__pfet_g5v0d10v5 w=1e+06u l=600000u
X2 a_239_482# IN0 a_66_482# w_0_415# sky130_fd_pr__pfet_g5v0d10v5 w=1e+06u l=600000u
X3 a_66_144# a_295_118# a_239_144# VSUBS sky130_fd_pr__nfet_g5v0d10v5 w=700000u l=600000u
X4 a_239_144# a_295_118# a_239_482# w_0_415# sky130_fd_pr__pfet_g5v0d10v5 w=1e+06u l=600000u
X5 a_239_144# IN0 a_66_144# VSUBS sky130_fd_pr__nfet_g5v0d10v5 w=700000u l=600000u
.ends

.subckt sky130_fd_io__hvsbt_inv_x2 VPWR VGND IN OUT VSUBS w_0_415#
X0 OUT IN VPWR w_0_415# sky130_fd_pr__pfet_g5v0d10v5 w=1e+06u l=600000u
X1 VPWR IN OUT w_0_415# sky130_fd_pr__pfet_g5v0d10v5 w=1e+06u l=600000u
X2 OUT IN VPWR w_0_415# sky130_fd_pr__pfet_g5v0d10v5 w=1e+06u l=600000u
X3 VGND IN OUT VSUBS sky130_fd_pr__nfet_g5v0d10v5 w=700000u l=600000u
X4 VPWR IN OUT w_0_415# sky130_fd_pr__pfet_g5v0d10v5 w=1e+06u l=600000u
X5 OUT IN VGND VSUBS sky130_fd_pr__nfet_g5v0d10v5 w=700000u l=600000u
.ends

.subckt sky130_fd_io__com_ctl_ls_octl VCC_IO VPB OUT_H_N OUT_H IN RST_H SET_H HLD_H_N
+ VSUBS a_181_1305# a_992_934# w_n17_1379#
X0 a_957_1391# a_181_1305# a_724_1391# VSUBS sky130_fd_pr__nfet_05v0_nvt w=1e+06u l=900000u
X1 VSUBS RST_H a_65_861# VSUBS sky130_fd_pr__nfet_g5v0d10v5 w=3e+06u l=600000u
X2 a_634_829# a_992_934# VSUBS VSUBS sky130_fd_pr__nfet_01v8 w=1e+06u l=250000u
X3 OUT_H a_130_181# VSUBS VSUBS sky130_fd_pr__nfet_g5v0d10v5 w=1e+06u l=600000u
X4 a_128_1391# a_181_1305# a_361_1391# VSUBS sky130_fd_pr__nfet_05v0_nvt w=1e+06u l=900000u
X5 a_128_1391# a_634_829# VSUBS VSUBS sky130_fd_pr__nfet_01v8_lvt w=1e+06u l=150000u
X6 OUT_H_N a_65_861# VCC_IO VCC_IO sky130_fd_pr__pfet_g5v0d10v5 w=3e+06u l=600000u
X7 a_361_1391# HLD_H_N a_130_181# VSUBS sky130_fd_pr__nfet_g5v0d10v5 w=3e+06u l=600000u
X8 a_634_829# a_992_934# a_181_1305# VPB sky130_fd_pr__pfet_01v8_hvt w=1e+06u l=250000u
X9 a_724_1391# a_181_1305# a_957_1391# VSUBS sky130_fd_pr__nfet_05v0_nvt w=1e+06u l=900000u
X10 a_130_181# a_65_861# VCC_IO VCC_IO sky130_fd_pr__pfet_g5v0d10v5 w=750000u l=500000u
X11 VSUBS a_634_829# a_128_1391# VSUBS sky130_fd_pr__nfet_01v8_lvt w=1e+06u l=150000u
X12 a_724_1391# a_992_934# VSUBS VSUBS sky130_fd_pr__nfet_01v8_lvt w=1e+06u l=150000u
X13 VSUBS IN a_992_934# VSUBS sky130_fd_pr__nfet_01v8 w=1e+06u l=250000u
X14 VSUBS a_634_829# a_128_1391# VSUBS sky130_fd_pr__nfet_01v8_lvt w=1e+06u l=150000u
X15 a_181_1305# IN a_992_934# VPB sky130_fd_pr__pfet_01v8_hvt w=1e+06u l=250000u
X16 VCC_IO a_130_181# OUT_H VCC_IO sky130_fd_pr__pfet_g5v0d10v5 w=3e+06u l=600000u
X17 VSUBS a_65_861# a_130_181# VSUBS sky130_fd_pr__nfet_g5v0d10v5 w=750000u l=1e+06u
X18 a_361_1391# a_181_1305# a_128_1391# VSUBS sky130_fd_pr__nfet_05v0_nvt w=1e+06u l=900000u
X19 VSUBS a_65_861# OUT_H_N VSUBS sky130_fd_pr__nfet_g5v0d10v5 w=1e+06u l=600000u
X20 a_128_1391# a_634_829# VSUBS VSUBS sky130_fd_pr__nfet_01v8_lvt w=1e+06u l=150000u
X21 VSUBS a_992_934# a_724_1391# VSUBS sky130_fd_pr__nfet_01v8_lvt w=1e+06u l=150000u
X22 a_957_1391# a_181_1305# a_724_1391# VSUBS sky130_fd_pr__nfet_05v0_nvt w=1e+06u l=900000u
X23 a_65_861# HLD_H_N a_957_1391# VSUBS sky130_fd_pr__nfet_g5v0d10v5 w=3e+06u l=600000u
X24 a_361_1391# a_181_1305# a_128_1391# VSUBS sky130_fd_pr__nfet_05v0_nvt w=1e+06u l=900000u
X25 a_724_1391# a_992_934# VSUBS VSUBS sky130_fd_pr__nfet_01v8_lvt w=1e+06u l=150000u
X26 a_724_1391# a_181_1305# a_957_1391# VSUBS sky130_fd_pr__nfet_05v0_nvt w=1e+06u l=900000u
X27 a_130_181# SET_H VSUBS VSUBS sky130_fd_pr__nfet_g5v0d10v5 w=3e+06u l=600000u
X28 a_65_861# a_130_181# VCC_IO VCC_IO sky130_fd_pr__pfet_g5v0d10v5 w=750000u l=500000u
X29 a_128_1391# a_181_1305# a_361_1391# VSUBS sky130_fd_pr__nfet_05v0_nvt w=1e+06u l=900000u
X30 VSUBS a_992_934# a_724_1391# VSUBS sky130_fd_pr__nfet_01v8_lvt w=1e+06u l=150000u
X31 a_65_861# a_130_181# VSUBS VSUBS sky130_fd_pr__nfet_g5v0d10v5 w=750000u l=1e+06u
.ends

.subckt sky130_fd_io__hvsbt_nand2 IN1 IN0 OUT VGND VPWR VSUBS w_n42_415#
X0 OUT IN0 VPWR w_n42_415# sky130_fd_pr__pfet_g5v0d10v5 w=1e+06u l=600000u
X1 VPWR IN1 OUT w_n42_415# sky130_fd_pr__pfet_g5v0d10v5 w=1e+06u l=600000u
X2 OUT IN0 VPWR w_n42_415# sky130_fd_pr__pfet_g5v0d10v5 w=1e+06u l=600000u
X3 OUT IN1 a_239_144# VSUBS sky130_fd_pr__nfet_g5v0d10v5 w=700000u l=600000u
X4 VPWR IN1 OUT w_n42_415# sky130_fd_pr__pfet_g5v0d10v5 w=1e+06u l=600000u
X5 a_239_144# IN0 VGND VSUBS sky130_fd_pr__nfet_g5v0d10v5 w=700000u l=600000u
.ends

.subckt sky130_fd_io__hvsbt_xorv2 VPWR VGND IN0 IN1 OUT VSUBS a_742_141# a_566_375#
+ w_95_503#
X0 a_862_569# a_161_167# OUT w_95_503# sky130_fd_pr__pfet_g5v0d10v5 w=1e+06u l=600000u
X1 a_862_167# a_742_141# OUT VSUBS sky130_fd_pr__nfet_g5v0d10v5 w=700000u l=600000u
X2 VPWR IN1 a_862_569# w_95_503# sky130_fd_pr__pfet_g5v0d10v5 w=1e+06u l=600000u
X3 a_510_569# IN0 VPWR w_95_503# sky130_fd_pr__pfet_g5v0d10v5 w=1e+06u l=600000u
X4 VGND a_161_167# a_862_167# VSUBS sky130_fd_pr__nfet_g5v0d10v5 w=700000u l=600000u
X5 a_510_167# IN0 VGND VSUBS sky130_fd_pr__nfet_g5v0d10v5 w=700000u l=600000u
X6 VPWR IN0 a_161_167# w_95_503# sky130_fd_pr__pfet_g5v0d10v5 w=1e+06u l=600000u
X7 OUT a_566_375# a_510_569# w_95_503# sky130_fd_pr__pfet_g5v0d10v5 w=1e+06u l=600000u
X8 a_566_375# IN1 VPWR w_95_503# sky130_fd_pr__pfet_g5v0d10v5 w=1e+06u l=600000u
X9 a_862_569# a_161_167# OUT w_95_503# sky130_fd_pr__pfet_g5v0d10v5 w=1e+06u l=600000u
X10 VGND IN0 a_161_167# VSUBS sky130_fd_pr__nfet_g5v0d10v5 w=700000u l=600000u
X11 OUT IN1 a_510_167# VSUBS sky130_fd_pr__nfet_g5v0d10v5 w=700000u l=600000u
X12 a_566_375# IN1 VGND VSUBS sky130_fd_pr__nfet_g5v0d10v5 w=700000u l=600000u
X13 VPWR IN1 a_862_569# w_95_503# sky130_fd_pr__pfet_g5v0d10v5 w=1e+06u l=600000u
X14 a_510_569# IN0 VPWR w_95_503# sky130_fd_pr__pfet_g5v0d10v5 w=1e+06u l=600000u
X15 OUT a_566_375# a_510_569# w_95_503# sky130_fd_pr__pfet_g5v0d10v5 w=1e+06u l=600000u
X16 a_566_375# IN1 VPWR w_95_503# sky130_fd_pr__pfet_g5v0d10v5 w=1e+06u l=600000u
X17 VPWR IN0 a_161_167# w_95_503# sky130_fd_pr__pfet_g5v0d10v5 w=1e+06u l=600000u
.ends

.subckt sky130_fd_io__gpiov2_octl DM_H[0] DM_H[2] DM_H_N[0] DM_H_N[1] DM_H_N[2] PUEN_2OR1_H
+ DM_H[1] PDEN_H_N[1] PDEN_H_N[0] OD_H SLOW SLOW_H SLOW_H_N HLD_I_H_N VCC_IO VGND
+ VPWR sky130_fd_io__hvsbt_nand2_0/OUT sky130_fd_io__hvsbt_nand2_4/IN1 sky130_fd_io__hvsbt_xorv2_0/a_566_375#
+ m1_n8856_3102# sky130_fd_io__hvsbt_nor_0/IN0 sky130_fd_io__hvsbt_nand2_0/IN0 sky130_fd_io__hvsbt_inv_x2_3/OUT
+ li_n9202_2336# sky130_fd_io__hvsbt_inv_x2_2/OUT sky130_fd_io__hvsbt_nand2_0/VGND
+ sky130_fd_io__hvsbt_nor_0/w_0_415# sky130_fd_io__hvsbt_nand2_0/VPWR sky130_fd_io__hvsbt_xorv2_0/a_742_141#
+
Xsky130_fd_io__hvsbt_inv_x1_4 sky130_fd_io__hvsbt_inv_x2_2/IN VCC_IO VGND VGND li_5323_4140#
+ VCC_IO sky130_fd_io__hvsbt_inv_x1
Xsky130_fd_io__hvsbt_xor_0 VCC_IO VGND DM_H[2] DM_H[1] sky130_fd_io__hvsbt_xor_0/OUT
+ VGND VCC_IO sky130_fd_io__hvsbt_xor
Xsky130_fd_io__hvsbt_nor_0 sky130_fd_io__hvsbt_nor_0/IN0 VGND sky130_fd_io__hvsbt_nand2_0/VPWR
+ sky130_fd_io__hvsbt_nand2_0/VGND sky130_fd_io__hvsbt_nor_0/w_0_415# li_n9202_2336#
+ sky130_fd_io__hvsbt_nand2_0/IN1 sky130_fd_io__hvsbt_nor
Xsky130_fd_io__hvsbt_inv_x2_0 VCC_IO VGND sky130_fd_io__hvsbt_inv_x2_0/IN PDEN_H_N[0]
+ VGND VCC_IO sky130_fd_io__hvsbt_inv_x2
Xsky130_fd_io__hvsbt_nor_1 DM_H_N[2] VGND VCC_IO VGND VCC_IO DM_H_N[1] sky130_fd_io__hvsbt_nand2_3/IN0
+ sky130_fd_io__hvsbt_nor
Xsky130_fd_io__hvsbt_inv_x2_1 VCC_IO VGND sky130_fd_io__hvsbt_inv_x2_1/IN PDEN_H_N[1]
+ VGND VCC_IO sky130_fd_io__hvsbt_inv_x2
Xsky130_fd_io__com_ctl_ls_octl_0 VCC_IO VPWR SLOW_H_N SLOW_H SLOW OD_H VGND HLD_I_H_N
+ VGND VPWR m2_5755_2254# VGND sky130_fd_io__com_ctl_ls_octl
Xsky130_fd_io__hvsbt_nor_2 sky130_fd_io__hvsbt_nor_2/IN0 VGND VCC_IO VGND VCC_IO DM_H_N[1]
+ li_5323_4140# sky130_fd_io__hvsbt_nor
Xsky130_fd_io__hvsbt_nand2_0 sky130_fd_io__hvsbt_nand2_0/IN1 sky130_fd_io__hvsbt_nand2_0/IN0
+ sky130_fd_io__hvsbt_nand2_0/OUT sky130_fd_io__hvsbt_nand2_0/VGND sky130_fd_io__hvsbt_nand2_0/VPWR
+ VGND sky130_fd_io__hvsbt_nor_0/w_0_415# sky130_fd_io__hvsbt_nand2
Xsky130_fd_io__hvsbt_nand2_1 sky130_fd_io__hvsbt_nand2_3/OUT sky130_fd_io__hvsbt_nand2_2/OUT
+ PUEN_2OR1_H VGND VCC_IO VGND VCC_IO sky130_fd_io__hvsbt_nand2
Xsky130_fd_io__hvsbt_inv_x2_2 VCC_IO VGND sky130_fd_io__hvsbt_inv_x2_2/IN sky130_fd_io__hvsbt_inv_x2_2/OUT
+ VGND VCC_IO sky130_fd_io__hvsbt_inv_x2
Xsky130_fd_io__hvsbt_nand2_2 DM_H[0] sky130_fd_io__hvsbt_xor_0/OUT sky130_fd_io__hvsbt_nand2_2/OUT
+ VGND VCC_IO VGND VCC_IO sky130_fd_io__hvsbt_nand2
Xsky130_fd_io__hvsbt_inv_x2_3 VCC_IO VGND sky130_fd_io__hvsbt_inv_x2_3/IN sky130_fd_io__hvsbt_inv_x2_3/OUT
+ VGND VCC_IO sky130_fd_io__hvsbt_inv_x2
Xsky130_fd_io__hvsbt_nand2_3 DM_H_N[0] sky130_fd_io__hvsbt_nand2_3/IN0 sky130_fd_io__hvsbt_nand2_3/OUT
+ VGND VCC_IO VGND VCC_IO sky130_fd_io__hvsbt_nand2
Xsky130_fd_io__hvsbt_nand2_4 sky130_fd_io__hvsbt_nand2_4/IN1 PUEN_2OR1_H sky130_fd_io__hvsbt_nand2_4/OUT
+ VGND VCC_IO VGND VCC_IO sky130_fd_io__hvsbt_nand2
Xsky130_fd_io__hvsbt_nand2_5 DM_H_N[1] DM_H_N[2] sky130_fd_io__hvsbt_nand2_6/IN1 VGND
+ VCC_IO VGND VCC_IO sky130_fd_io__hvsbt_nand2
Xsky130_fd_io__hvsbt_nand2_6 sky130_fd_io__hvsbt_nand2_6/IN1 DM_H_N[0] sky130_fd_io__hvsbt_nand2_6/OUT
+ VGND VCC_IO VGND VCC_IO sky130_fd_io__hvsbt_nand2
Xsky130_fd_io__hvsbt_nand2_7 DM_H[0] DM_H[1] sky130_fd_io__hvsbt_nand2_7/OUT VGND
+ VCC_IO VGND VCC_IO sky130_fd_io__hvsbt_nand2
Xsky130_fd_io__hvsbt_xorv2_0 VCC_IO VGND DM_H[2] DM_H[0] sky130_fd_io__hvsbt_nor_2/IN0
+ VGND sky130_fd_io__hvsbt_xorv2_0/a_742_141# sky130_fd_io__hvsbt_xorv2_0/a_566_375#
+ VCC_IO sky130_fd_io__hvsbt_xorv2
Xsky130_fd_io__hvsbt_inv_x1_0 sky130_fd_io__hvsbt_inv_x2_0/IN VCC_IO VGND VGND sky130_fd_io__hvsbt_nand2_7/OUT
+ VCC_IO sky130_fd_io__hvsbt_inv_x1
Xsky130_fd_io__hvsbt_inv_x1_1 sky130_fd_io__hvsbt_inv_x2_3/IN VCC_IO VGND VGND sky130_fd_io__hvsbt_inv_x1_3/OUT
+ VCC_IO sky130_fd_io__hvsbt_inv_x1
Xsky130_fd_io__hvsbt_inv_x1_2 sky130_fd_io__hvsbt_inv_x2_1/IN VCC_IO VGND VGND sky130_fd_io__hvsbt_nand2_6/OUT
+ VCC_IO sky130_fd_io__hvsbt_inv_x1
Xsky130_fd_io__hvsbt_inv_x1_3 sky130_fd_io__hvsbt_inv_x1_3/OUT VCC_IO VGND VGND sky130_fd_io__hvsbt_nand2_4/OUT
+ VCC_IO sky130_fd_io__hvsbt_inv_x1
.ends

.subckt sky130_fd_io__gpio_dat_ls_1v2 IN OUT_H_N RST_H SET_H HLD_H_N VCC_IO VGND OUT_H
+ VPWR_KA
X0 a_2080_128# VPWR_KA a_1720_1202# VGND sky130_fd_pr__nfet_05v0_nvt w=1e+06u l=900000u
X1 a_1484_128# VPWR_KA a_1251_128# VGND sky130_fd_pr__nfet_05v0_nvt w=1e+06u l=900000u
X2 a_2251_2228# IN VGND VGND sky130_fd_pr__nfet_01v8 w=1e+06u l=250000u
X3 a_1251_128# VPWR_KA a_1484_128# VGND sky130_fd_pr__nfet_05v0_nvt w=1e+06u l=900000u
X4 VGND a_28_633# a_28_14# VGND sky130_fd_pr__nfet_g5v0d10v5 w=700000u l=600000u
X5 a_2080_128# VPWR_KA a_1720_1202# VGND sky130_fd_pr__nfet_05v0_nvt w=1e+06u l=900000u
X6 VGND a_2251_2228# a_2080_128# VGND sky130_fd_pr__nfet_01v8_lvt w=1e+06u l=150000u
X7 VPWR_KA a_2251_2228# a_2251_36# VPWR_KA sky130_fd_pr__pfet_01v8_hvt w=3e+06u l=250000u
X8 a_1484_128# a_2251_36# VGND VGND sky130_fd_pr__nfet_01v8_lvt w=1e+06u l=150000u
X9 VGND a_2251_36# a_1484_128# VGND sky130_fd_pr__nfet_01v8_lvt w=1e+06u l=150000u
X10 a_28_633# a_28_14# VCC_IO VCC_IO sky130_fd_pr__pfet_g5v0d10v5 w=1e+06u l=500000u
X11 VCC_IO a_28_14# OUT_H_N VCC_IO sky130_fd_pr__pfet_g5v0d10v5 w=3e+06u l=500000u
X12 a_1484_128# VPWR_KA a_1251_128# VGND sky130_fd_pr__nfet_05v0_nvt w=1e+06u l=900000u
X13 VGND IN a_2251_2228# VGND sky130_fd_pr__nfet_01v8 w=1e+06u l=250000u
X14 a_1484_128# a_2251_36# VGND VGND sky130_fd_pr__nfet_01v8_lvt w=1e+06u l=150000u
X15 VGND a_2251_36# a_1484_128# VGND sky130_fd_pr__nfet_01v8_lvt w=1e+06u l=150000u
X16 a_1484_128# VPWR_KA a_1251_128# VGND sky130_fd_pr__nfet_05v0_nvt w=1e+06u l=900000u
X17 a_2080_128# VPWR_KA a_1720_1202# VGND sky130_fd_pr__nfet_05v0_nvt w=1e+06u l=900000u
X18 VGND a_2251_36# a_1484_128# VGND sky130_fd_pr__nfet_01v8_lvt w=1e+06u l=150000u
X19 OUT_H_N a_28_14# VGND VGND sky130_fd_pr__nfet_g5v0d10v5 w=1e+06u l=600000u
X20 VGND a_2251_2228# a_2080_128# VGND sky130_fd_pr__nfet_01v8_lvt w=1e+06u l=150000u
X21 a_2080_128# a_2251_2228# VGND VGND sky130_fd_pr__nfet_01v8_lvt w=1e+06u l=150000u
X22 a_1484_128# a_2251_36# VGND VGND sky130_fd_pr__nfet_01v8_lvt w=1e+06u l=150000u
X23 a_28_633# SET_H VGND VGND sky130_fd_pr__nfet_g5v0d10v5 w=3e+06u l=600000u
X24 a_2080_128# VPWR_KA a_1720_1202# VGND sky130_fd_pr__nfet_05v0_nvt w=1e+06u l=900000u
X25 a_2080_128# a_2251_2228# VGND VGND sky130_fd_pr__nfet_01v8_lvt w=1e+06u l=150000u
X26 a_2080_128# VPWR_KA a_1720_1202# VGND sky130_fd_pr__nfet_05v0_nvt w=1e+06u l=900000u
X27 a_2251_2228# IN VPWR_KA VPWR_KA sky130_fd_pr__pfet_01v8_hvt w=3e+06u l=250000u
X28 a_1251_128# VPWR_KA a_1484_128# VGND sky130_fd_pr__nfet_05v0_nvt w=1e+06u l=900000u
X29 VGND a_2251_2228# a_2251_36# VGND sky130_fd_pr__nfet_01v8 w=1e+06u l=250000u
X30 a_2080_128# VPWR_KA a_1720_1202# VGND sky130_fd_pr__nfet_05v0_nvt w=1e+06u l=900000u
X31 a_1251_128# VPWR_KA a_1484_128# VGND sky130_fd_pr__nfet_05v0_nvt w=1e+06u l=900000u
X32 a_2080_128# VPWR_KA a_1720_1202# VGND sky130_fd_pr__nfet_05v0_nvt w=1e+06u l=900000u
X33 OUT_H a_28_633# VCC_IO VCC_IO sky130_fd_pr__pfet_g5v0d10v5 w=3e+06u l=500000u
X34 VGND a_2251_2228# a_2080_128# VGND sky130_fd_pr__nfet_01v8_lvt w=1e+06u l=150000u
X35 a_1251_128# VPWR_KA a_1484_128# VGND sky130_fd_pr__nfet_05v0_nvt w=1e+06u l=900000u
X36 VGND a_28_633# OUT_H VGND sky130_fd_pr__nfet_g5v0d10v5 w=1e+06u l=600000u
X37 VGND a_2251_2228# a_2080_128# VGND sky130_fd_pr__nfet_01v8_lvt w=1e+06u l=150000u
X38 VGND RST_H a_28_14# VGND sky130_fd_pr__nfet_g5v0d10v5 w=3e+06u l=600000u
X39 a_28_633# a_28_14# VGND VGND sky130_fd_pr__nfet_g5v0d10v5 w=700000u l=600000u
X40 a_1484_128# VPWR_KA a_1251_128# VGND sky130_fd_pr__nfet_05v0_nvt w=1e+06u l=900000u
X41 a_28_14# a_28_633# VCC_IO VCC_IO sky130_fd_pr__pfet_g5v0d10v5 w=1e+06u l=500000u
X42 a_2251_36# a_2251_2228# VGND VGND sky130_fd_pr__nfet_01v8 w=1e+06u l=250000u
X43 VGND a_2251_36# a_1484_128# VGND sky130_fd_pr__nfet_01v8_lvt w=1e+06u l=150000u
X44 a_1484_128# a_2251_36# VGND VGND sky130_fd_pr__nfet_01v8_lvt w=1e+06u l=150000u
X45 a_1251_128# HLD_H_N a_28_633# VGND sky130_fd_pr__nfet_g5v0d10v5 w=5e+06u l=500000u
X46 a_2080_128# a_2251_2228# VGND VGND sky130_fd_pr__nfet_01v8_lvt w=1e+06u l=150000u
X47 a_2080_128# VPWR_KA a_1720_1202# VGND sky130_fd_pr__nfet_05v0_nvt w=1e+06u l=900000u
X48 a_1720_1202# HLD_H_N a_28_14# VGND sky130_fd_pr__nfet_g5v0d10v5 w=5e+06u l=500000u
X49 a_2080_128# a_2251_2228# VGND VGND sky130_fd_pr__nfet_01v8_lvt w=1e+06u l=150000u
.ends

.subckt sky130_fd_io__gpio_dat_lsv2 IN OUT_H_N RST_H SET_H HLD_H_N VCC_IO VGND OUT_H
+ VPWR_KA a_28_14#
X0 a_2080_128# VPWR_KA a_1720_1202# VGND sky130_fd_pr__nfet_05v0_nvt w=1e+06u l=900000u
X1 a_1484_128# VPWR_KA a_1251_128# VGND sky130_fd_pr__nfet_05v0_nvt w=1e+06u l=900000u
X2 a_2251_2228# IN VGND VGND sky130_fd_pr__nfet_01v8 w=1e+06u l=250000u
X3 a_1251_128# VPWR_KA a_1484_128# VGND sky130_fd_pr__nfet_05v0_nvt w=1e+06u l=900000u
X4 VGND a_28_633# a_28_14# VGND sky130_fd_pr__nfet_g5v0d10v5 w=700000u l=600000u
X5 a_2080_128# VPWR_KA a_1720_1202# VGND sky130_fd_pr__nfet_05v0_nvt w=1e+06u l=900000u
X6 VGND a_2251_2228# a_2080_128# VGND sky130_fd_pr__nfet_01v8_lvt w=1e+06u l=150000u
X7 VPWR_KA a_2251_2228# a_2251_36# VPWR_KA sky130_fd_pr__pfet_01v8_hvt w=3e+06u l=250000u
X8 a_1484_128# a_2251_36# VGND VGND sky130_fd_pr__nfet_01v8_lvt w=1e+06u l=150000u
X9 VGND a_2251_36# a_1484_128# VGND sky130_fd_pr__nfet_01v8_lvt w=1e+06u l=150000u
X10 a_28_633# a_28_14# VCC_IO VCC_IO sky130_fd_pr__pfet_g5v0d10v5 w=1e+06u l=500000u
X11 VCC_IO a_28_14# OUT_H_N VCC_IO sky130_fd_pr__pfet_g5v0d10v5 w=3e+06u l=500000u
X12 a_1484_128# VPWR_KA a_1251_128# VGND sky130_fd_pr__nfet_05v0_nvt w=1e+06u l=900000u
X13 VGND IN a_2251_2228# VGND sky130_fd_pr__nfet_01v8 w=1e+06u l=250000u
X14 a_1484_128# a_2251_36# VGND VGND sky130_fd_pr__nfet_01v8_lvt w=1e+06u l=150000u
X15 VGND a_2251_36# a_1484_128# VGND sky130_fd_pr__nfet_01v8_lvt w=1e+06u l=150000u
X16 a_1484_128# VPWR_KA a_1251_128# VGND sky130_fd_pr__nfet_05v0_nvt w=1e+06u l=900000u
X17 a_2080_128# VPWR_KA a_1720_1202# VGND sky130_fd_pr__nfet_05v0_nvt w=1e+06u l=900000u
X18 VGND a_2251_36# a_1484_128# VGND sky130_fd_pr__nfet_01v8_lvt w=1e+06u l=150000u
X19 OUT_H_N a_28_14# VGND VGND sky130_fd_pr__nfet_g5v0d10v5 w=1e+06u l=600000u
X20 VGND a_2251_2228# a_2080_128# VGND sky130_fd_pr__nfet_01v8_lvt w=1e+06u l=150000u
X21 a_2080_128# a_2251_2228# VGND VGND sky130_fd_pr__nfet_01v8_lvt w=1e+06u l=150000u
X22 a_1484_128# a_2251_36# VGND VGND sky130_fd_pr__nfet_01v8_lvt w=1e+06u l=150000u
X23 a_28_633# SET_H VGND VGND sky130_fd_pr__nfet_g5v0d10v5 w=3e+06u l=600000u
X24 a_2080_128# VPWR_KA a_1720_1202# VGND sky130_fd_pr__nfet_05v0_nvt w=1e+06u l=900000u
X25 a_2080_128# a_2251_2228# VGND VGND sky130_fd_pr__nfet_01v8_lvt w=1e+06u l=150000u
X26 a_2080_128# VPWR_KA a_1720_1202# VGND sky130_fd_pr__nfet_05v0_nvt w=1e+06u l=900000u
X27 a_2251_2228# IN VPWR_KA VPWR_KA sky130_fd_pr__pfet_01v8_hvt w=3e+06u l=250000u
X28 a_1251_128# VPWR_KA a_1484_128# VGND sky130_fd_pr__nfet_05v0_nvt w=1e+06u l=900000u
X29 VGND a_2251_2228# a_2251_36# VGND sky130_fd_pr__nfet_01v8 w=1e+06u l=250000u
X30 a_2080_128# VPWR_KA a_1720_1202# VGND sky130_fd_pr__nfet_05v0_nvt w=1e+06u l=900000u
X31 a_1251_128# VPWR_KA a_1484_128# VGND sky130_fd_pr__nfet_05v0_nvt w=1e+06u l=900000u
X32 a_2080_128# VPWR_KA a_1720_1202# VGND sky130_fd_pr__nfet_05v0_nvt w=1e+06u l=900000u
X33 OUT_H a_28_633# VCC_IO VCC_IO sky130_fd_pr__pfet_g5v0d10v5 w=3e+06u l=500000u
X34 VGND a_2251_2228# a_2080_128# VGND sky130_fd_pr__nfet_01v8_lvt w=1e+06u l=150000u
X35 a_1251_128# VPWR_KA a_1484_128# VGND sky130_fd_pr__nfet_05v0_nvt w=1e+06u l=900000u
X36 VGND a_28_633# OUT_H VGND sky130_fd_pr__nfet_g5v0d10v5 w=1e+06u l=600000u
X37 VGND a_2251_2228# a_2080_128# VGND sky130_fd_pr__nfet_01v8_lvt w=1e+06u l=150000u
X38 VGND RST_H a_28_14# VGND sky130_fd_pr__nfet_g5v0d10v5 w=3e+06u l=600000u
X39 a_28_633# a_28_14# VGND VGND sky130_fd_pr__nfet_g5v0d10v5 w=700000u l=600000u
X40 a_1484_128# VPWR_KA a_1251_128# VGND sky130_fd_pr__nfet_05v0_nvt w=1e+06u l=900000u
X41 a_28_14# a_28_633# VCC_IO VCC_IO sky130_fd_pr__pfet_g5v0d10v5 w=1e+06u l=500000u
X42 a_2251_36# a_2251_2228# VGND VGND sky130_fd_pr__nfet_01v8 w=1e+06u l=250000u
X43 VGND a_2251_36# a_1484_128# VGND sky130_fd_pr__nfet_01v8_lvt w=1e+06u l=150000u
X44 a_1484_128# a_2251_36# VGND VGND sky130_fd_pr__nfet_01v8_lvt w=1e+06u l=150000u
X45 a_1251_128# HLD_H_N a_28_633# VGND sky130_fd_pr__nfet_g5v0d10v5 w=5e+06u l=500000u
X46 a_2080_128# a_2251_2228# VGND VGND sky130_fd_pr__nfet_01v8_lvt w=1e+06u l=150000u
X47 a_2080_128# VPWR_KA a_1720_1202# VGND sky130_fd_pr__nfet_05v0_nvt w=1e+06u l=900000u
X48 a_1720_1202# HLD_H_N a_28_14# VGND sky130_fd_pr__nfet_g5v0d10v5 w=5e+06u l=500000u
X49 a_2080_128# a_2251_2228# VGND VGND sky130_fd_pr__nfet_01v8_lvt w=1e+06u l=150000u
.ends

.subckt sky130_fd_io__com_cclat PU_DIS_H PD_DIS_H_uq1 VGND OE_H_N DRVLO_H_N_uq5 DRVHI_H_uq5
+ VCC_IO
X0 DRVLO_H_N_uq5 a_2361_1095# VCC_IO VCC_IO sky130_fd_pr__pfet_g5v0d10v5 w=5e+06u l=500000u
X1 a_4762_1193# DRVHI_H_uq5 a_3417_1193# VCC_IO sky130_fd_pr__pfet_g5v0d10v5 w=5e+06u l=500000u
X2 VCC_IO PU_DIS_H a_638_279# VCC_IO sky130_fd_pr__pfet_g5v0d10v5 w=5e+06u l=500000u
X3 VCC_IO a_505_1193# a_3417_1193# VCC_IO sky130_fd_pr__pfet_g5v0d10v5 w=5e+06u l=600000u
X4 a_2361_1095# DRVHI_H_uq5 VGND VGND sky130_fd_pr__nfet_g5v0d10v5 w=3e+06u l=600000u
X5 VCC_IO a_638_279# a_947_1193# VCC_IO sky130_fd_pr__pfet_g5v0d10v5 w=5e+06u l=500000u
X6 DRVHI_H_uq5 a_947_1193# VCC_IO VCC_IO sky130_fd_pr__pfet_g5v0d10v5 w=5e+06u l=500000u
X7 a_987_279# a_176_279# VGND VGND sky130_fd_pr__nfet_g5v0d10v5 w=3e+06u l=600000u
X8 VGND a_176_279# a_987_279# VGND sky130_fd_pr__nfet_g5v0d10v5 w=3e+06u l=600000u
X9 a_987_279# DRVLO_H_N_uq5 a_1628_279# VGND sky130_fd_pr__nfet_g5v0d10v5 w=3e+06u l=600000u
X10 DRVHI_H_uq5 a_947_1193# VGND VGND sky130_fd_pr__nfet_g5v0d10v5 w=3e+06u l=600000u
X11 a_2361_1095# a_505_1193# VGND VGND sky130_fd_pr__nfet_g5v0d10v5 w=3e+06u l=600000u
X12 VGND PD_DIS_H_uq1 a_2361_1095# VGND sky130_fd_pr__nfet_g5v0d10v5 w=3e+06u l=600000u
X13 VCC_IO a_2361_1095# DRVLO_H_N_uq5 VCC_IO sky130_fd_pr__pfet_g5v0d10v5 w=5e+06u l=500000u
X14 VGND OE_H_N a_176_279# VGND sky130_fd_pr__nfet_g5v0d10v5 w=3e+06u l=600000u
X15 VGND a_176_279# a_987_279# VGND sky130_fd_pr__nfet_g5v0d10v5 w=3e+06u l=600000u
X16 VGND DRVHI_H_uq5 a_2361_1095# VGND sky130_fd_pr__nfet_g5v0d10v5 w=3e+06u l=600000u
X17 a_3417_1193# a_505_1193# VCC_IO VCC_IO sky130_fd_pr__pfet_g5v0d10v5 w=5e+06u l=600000u
X18 VCC_IO a_505_1193# a_3417_1193# VCC_IO sky130_fd_pr__pfet_g5v0d10v5 w=5e+06u l=600000u
X19 VCC_IO a_947_1193# DRVHI_H_uq5 VCC_IO sky130_fd_pr__pfet_g5v0d10v5 w=5e+06u l=500000u
X20 VCC_IO a_947_1193# DRVHI_H_uq5 VCC_IO sky130_fd_pr__pfet_g5v0d10v5 w=5e+06u l=500000u
X21 a_505_1193# a_176_279# VCC_IO VCC_IO sky130_fd_pr__pfet_g5v0d10v5 w=5e+06u l=500000u
X22 a_2361_1095# PD_DIS_H_uq1 a_4762_1193# VCC_IO sky130_fd_pr__pfet_g5v0d10v5 w=5e+06u l=500000u
X23 a_987_279# a_176_279# VGND VGND sky130_fd_pr__nfet_g5v0d10v5 w=3e+06u l=600000u
X24 a_1628_279# DRVLO_H_N_uq5 a_987_279# VGND sky130_fd_pr__nfet_g5v0d10v5 w=3e+06u l=600000u
X25 VGND a_2361_1095# DRVLO_H_N_uq5 VGND sky130_fd_pr__nfet_g5v0d10v5 w=3e+06u l=600000u
X26 VGND a_947_1193# DRVHI_H_uq5 VGND sky130_fd_pr__nfet_g5v0d10v5 w=3e+06u l=600000u
X27 DRVLO_H_N_uq5 a_2361_1095# VCC_IO VCC_IO sky130_fd_pr__pfet_g5v0d10v5 w=5e+06u l=500000u
X28 a_947_1193# a_638_279# a_1628_279# VGND sky130_fd_pr__nfet_g5v0d10v5 w=3e+06u l=600000u
X29 DRVHI_H_uq5 a_947_1193# VGND VGND sky130_fd_pr__nfet_g5v0d10v5 w=3e+06u l=600000u
X30 a_3417_1193# a_505_1193# VCC_IO VCC_IO sky130_fd_pr__pfet_g5v0d10v5 w=5e+06u l=600000u
X31 a_3417_1193# DRVHI_H_uq5 a_4762_1193# VCC_IO sky130_fd_pr__pfet_g5v0d10v5 w=5e+06u l=500000u
X32 DRVHI_H_uq5 a_947_1193# VCC_IO VCC_IO sky130_fd_pr__pfet_g5v0d10v5 w=5e+06u l=500000u
X33 a_947_1193# DRVLO_H_N_uq5 VCC_IO VCC_IO sky130_fd_pr__pfet_g5v0d10v5 w=5e+06u l=500000u
X34 a_3417_1193# a_505_1193# VCC_IO VCC_IO sky130_fd_pr__pfet_g5v0d10v5 w=5e+06u l=600000u
X35 DRVLO_H_N_uq5 a_2361_1095# VGND VGND sky130_fd_pr__nfet_g5v0d10v5 w=3e+06u l=600000u
X36 VCC_IO a_947_1193# DRVHI_H_uq5 VCC_IO sky130_fd_pr__pfet_g5v0d10v5 w=5e+06u l=500000u
X37 a_4762_1193# DRVHI_H_uq5 a_3417_1193# VCC_IO sky130_fd_pr__pfet_g5v0d10v5 w=5e+06u l=500000u
X38 a_1628_279# a_638_279# a_947_1193# VGND sky130_fd_pr__nfet_g5v0d10v5 w=3e+06u l=600000u
X39 VGND a_2361_1095# DRVLO_H_N_uq5 VGND sky130_fd_pr__nfet_g5v0d10v5 w=3e+06u l=600000u
X40 VGND a_2361_1095# DRVLO_H_N_uq5 VGND sky130_fd_pr__nfet_g5v0d10v5 w=3e+06u l=600000u
X41 VCC_IO a_505_1193# a_3417_1193# VCC_IO sky130_fd_pr__pfet_g5v0d10v5 w=5e+06u l=600000u
X42 DRVLO_H_N_uq5 a_2361_1095# VGND VGND sky130_fd_pr__nfet_g5v0d10v5 w=3e+06u l=600000u
X43 VGND a_947_1193# DRVHI_H_uq5 VGND sky130_fd_pr__nfet_g5v0d10v5 w=3e+06u l=600000u
X44 VCC_IO a_505_1193# a_3417_1193# VCC_IO sky130_fd_pr__pfet_g5v0d10v5 w=5e+06u l=600000u
X45 VCC_IO a_2361_1095# DRVLO_H_N_uq5 VCC_IO sky130_fd_pr__pfet_g5v0d10v5 w=5e+06u l=500000u
X46 a_2361_1095# PD_DIS_H_uq1 a_4762_1193# VCC_IO sky130_fd_pr__pfet_g5v0d10v5 w=5e+06u l=500000u
X47 a_947_1193# a_176_279# VCC_IO VCC_IO sky130_fd_pr__pfet_g5v0d10v5 w=5e+06u l=500000u
X48 DRVHI_H_uq5 a_947_1193# VCC_IO VCC_IO sky130_fd_pr__pfet_g5v0d10v5 w=5e+06u l=500000u
X49 DRVLO_H_N_uq5 a_2361_1095# VCC_IO VCC_IO sky130_fd_pr__pfet_g5v0d10v5 w=5e+06u l=500000u
X50 VCC_IO OE_H_N a_176_279# VCC_IO sky130_fd_pr__pfet_g5v0d10v5 w=5e+06u l=500000u
X51 a_4762_1193# PD_DIS_H_uq1 a_2361_1095# VCC_IO sky130_fd_pr__pfet_g5v0d10v5 w=5e+06u l=500000u
X52 a_505_1193# a_176_279# VGND VGND sky130_fd_pr__nfet_g5v0d10v5 w=3e+06u l=600000u
X53 DRVLO_H_N_uq5 a_2361_1095# VGND VGND sky130_fd_pr__nfet_g5v0d10v5 w=3e+06u l=600000u
X54 a_2361_1095# PD_DIS_H_uq1 VGND VGND sky130_fd_pr__nfet_g5v0d10v5 w=3e+06u l=600000u
X55 a_3417_1193# a_505_1193# VCC_IO VCC_IO sky130_fd_pr__pfet_g5v0d10v5 w=5e+06u l=600000u
X56 a_4762_1193# PD_DIS_H_uq1 a_2361_1095# VCC_IO sky130_fd_pr__pfet_g5v0d10v5 w=5e+06u l=500000u
X57 DRVHI_H_uq5 a_947_1193# VGND VGND sky130_fd_pr__nfet_g5v0d10v5 w=3e+06u l=600000u
X58 VGND a_505_1193# a_2361_1095# VGND sky130_fd_pr__nfet_g5v0d10v5 w=3e+06u l=600000u
X59 VCC_IO a_2361_1095# DRVLO_H_N_uq5 VCC_IO sky130_fd_pr__pfet_g5v0d10v5 w=5e+06u l=500000u
X60 a_3417_1193# DRVHI_H_uq5 a_4762_1193# VCC_IO sky130_fd_pr__pfet_g5v0d10v5 w=5e+06u l=500000u
X61 VGND PU_DIS_H a_638_279# VGND sky130_fd_pr__nfet_g5v0d10v5 w=3e+06u l=600000u
X62 VGND a_947_1193# DRVHI_H_uq5 VGND sky130_fd_pr__nfet_g5v0d10v5 w=3e+06u l=600000u
.ends

.subckt sky130_fd_io__com_opath_datoev2 OUT OE_N DRVHI_H DRVLO_H_N VCC_IO VGND HLD_I_OVR_H
+ VPWR_KA OE_H OD_H sky130_fd_io__gpio_dat_ls_1v2_0/SET_H li_5565_99# w_5565_99# sky130_fd_io__gpio_dat_ls_1v2_0/OUT_H
+ w_n227_n1072#
Xsky130_fd_io__gpio_dat_ls_1v2_0 OUT sky130_fd_io__com_cclat_0/PU_DIS_H VGND sky130_fd_io__gpio_dat_ls_1v2_0/SET_H
+ HLD_I_OVR_H VCC_IO VGND sky130_fd_io__gpio_dat_ls_1v2_0/OUT_H VPWR_KA sky130_fd_io__gpio_dat_ls_1v2
Xsky130_fd_io__gpio_dat_lsv2_0 OE_N OE_H VGND OD_H HLD_I_OVR_H VCC_IO VGND sky130_fd_io__com_cclat_0/OE_H_N
+ VPWR_KA a_28_1762# sky130_fd_io__gpio_dat_lsv2
Xsky130_fd_io__com_cclat_0 sky130_fd_io__com_cclat_0/PU_DIS_H sky130_fd_io__gpio_dat_ls_1v2_0/OUT_H
+ VGND sky130_fd_io__com_cclat_0/OE_H_N DRVLO_H_N DRVHI_H VCC_IO sky130_fd_io__com_cclat
.ends

.subckt sky130_fd_io__com_pdpredrvr_strong_slowv2 DRVLO_H_N PDEN_H_N VCC_IO VGND_IO
+ PD_H VSUBS w_59_800#
X0 a_125_866# DRVLO_H_N PD_H w_59_800# sky130_fd_pr__pfet_g5v0d10v5 w=3e+06u l=500000u
X1 a_125_866# PDEN_H_N VCC_IO w_59_800# sky130_fd_pr__pfet_g5v0d10v5 w=3e+06u l=500000u
X2 PD_H DRVLO_H_N VGND_IO VSUBS sky130_fd_pr__nfet_g5v0d10v5 w=3e+06u l=600000u
X3 VCC_IO PDEN_H_N a_125_866# w_59_800# sky130_fd_pr__pfet_g5v0d10v5 w=3e+06u l=500000u
X4 PD_H DRVLO_H_N a_125_866# w_59_800# sky130_fd_pr__pfet_g5v0d10v5 w=3e+06u l=500000u
X5 VGND_IO PDEN_H_N PD_H VSUBS sky130_fd_pr__nfet_g5v0d10v5 w=3e+06u l=600000u
.ends

.subckt sky130_fd_io__com_pdpredrvr_weakv2 DRVLO_H_N PDEN_H_N VGND_IO VCC_IO PD_H
X0 VCC_IO PDEN_H_N a_73_866# VCC_IO sky130_fd_pr__pfet_g5v0d10v5 w=3e+06u l=600000u
X1 PD_H DRVLO_H_N a_73_866# VCC_IO sky130_fd_pr__pfet_g5v0d10v5 w=3e+06u l=600000u
X2 PD_H PDEN_H_N VGND_IO VGND_IO sky130_fd_pr__nfet_g5v0d10v5 w=3e+06u l=600000u
X3 a_73_866# PDEN_H_N VCC_IO VCC_IO sky130_fd_pr__pfet_g5v0d10v5 w=3e+06u l=600000u
X4 VGND_IO DRVLO_H_N PD_H VGND_IO sky130_fd_pr__nfet_g5v0d10v5 w=3e+06u l=600000u
.ends

.subckt sky130_fd_io__com_pdpredrvr_pbiasv2 EN_H VGND_IO VCC_IO_uq1 PBIAS_uq5 DRVLO_H_N_uq1
+ EN_H_N PDEN_H_N PD_H VSUBS a_16799_2980# a_18190_3078# a_13911_2980# a_12120_4573#
+ a_12434_3172# a_16899_3078#
X0 a_11460_4784# DRVLO_H_N_uq1 VGND_IO VSUBS sky130_fd_pr__nfet_g5v0d10v5 w=1e+06u l=600000u
X1 a_12578_4025# PD_H a_12434_3172# VSUBS sky130_fd_pr__nfet_g5v0d10v5 w=420000u l=4e+06u
X2 PBIAS_uq5 PBIAS_uq5 a_13911_2980# VCC_IO_uq1 sky130_fd_pr__pfet_g5v0d10v5 w=5e+06u l=500000u
R0 PBIAS_uq5 m1_12872_3935# short w=650000u l=10000u
R1 a_13911_2980# m1_15141_3027# short w=230000u l=10000u
X3 a_13911_2980# a_13911_2980# VCC_IO_uq1 VCC_IO_uq1 sky130_fd_pr__pfet_g5v0d10v5 w=5e+06u l=500000u
R2 a_11368_4652# m1_11681_3387# short w=260000u l=10000u
X4 PBIAS_uq5 a_11581_4213# VGND_IO VSUBS sky130_fd_pr__nfet_g5v0d10v5 w=1e+06u l=1e+06u
X5 VCC_IO_uq1 a_13911_2980# a_13911_2980# VCC_IO_uq1 sky130_fd_pr__pfet_g5v0d10v5 w=5e+06u l=500000u
X6 a_13911_2980# PBIAS_uq5 PBIAS_uq5 VCC_IO_uq1 sky130_fd_pr__pfet_g5v0d10v5 w=5e+06u l=500000u
X7 VGND_IO a_11581_4213# PBIAS_uq5 VSUBS sky130_fd_pr__nfet_g5v0d10v5 w=1e+06u l=1e+06u
X8 a_16899_3078# a_16799_2980# VCC_IO_uq1 VCC_IO_uq1 sky130_fd_pr__pfet_g5v0d10v5 w=5e+06u l=500000u
X9 VCC_IO_uq1 a_16799_2980# a_16899_3078# VCC_IO_uq1 sky130_fd_pr__pfet_g5v0d10v5 w=5e+06u l=500000u