*SPEF "IEEE 1481-1998"
*DESIGN "user_proj_example"
*DATE "Wed Nov 11 04:09:08 2020"
*VENDOR "AUC CSCE Department"
*PROGRAM "SPEF Extractor"
*VERSION "1.0"
*DESIGN_FLOW "PIN_CAP NONE"
*DIVIDER /
*DELIMITER :
*BUS_DELIMITER []
*T_UNIT 1.00000 NS
*C_UNIT 1.00000 PF
*R_UNIT 1.00000 OHM
*L_UNIT 1.00000 HENRY


*NAME_MAP
*0 io_in[0]
*1 io_in[10]
*2 io_in[11]
*3 io_in[12]
*4 io_in[13]
*5 io_in[14]
*6 io_in[15]
*7 io_in[16]
*8 io_in[17]
*9 io_in[18]
*10 io_in[19]
*11 io_in[1]
*12 io_in[20]
*13 io_in[21]
*14 io_in[22]
*15 io_in[23]
*16 io_in[24]
*17 io_in[25]
*18 io_in[26]
*19 io_in[27]
*20 io_in[28]
*21 io_in[29]
*22 io_in[2]
*23 io_in[30]
*24 io_in[31]
*25 io_in[32]
*26 io_in[33]
*27 io_in[34]
*28 io_in[35]
*29 io_in[36]
*30 io_in[37]
*31 io_in[3]
*32 io_in[4]
*33 io_in[5]
*34 io_in[6]
*35 io_in[7]
*36 io_in[8]
*37 io_in[9]
*38 io_oeb[0]
*39 io_oeb[10]
*40 io_oeb[11]
*41 io_oeb[12]
*42 io_oeb[13]
*43 io_oeb[14]
*44 io_oeb[15]
*45 io_oeb[16]
*46 io_oeb[17]
*47 io_oeb[18]
*48 io_oeb[19]
*49 io_oeb[1]
*50 io_oeb[20]
*51 io_oeb[21]
*52 io_oeb[22]
*53 io_oeb[23]
*54 io_oeb[24]
*55 io_oeb[25]
*56 io_oeb[26]
*57 io_oeb[27]
*58 io_oeb[28]
*59 io_oeb[29]
*60 io_oeb[2]
*61 io_oeb[30]
*62 io_oeb[31]
*63 io_oeb[32]
*64 io_oeb[33]
*65 io_oeb[34]
*66 io_oeb[35]
*67 io_oeb[36]
*68 io_oeb[37]
*69 io_oeb[3]
*70 io_oeb[4]
*71 io_oeb[5]
*72 io_oeb[6]
*73 io_oeb[7]
*74 io_oeb[8]
*75 io_oeb[9]
*76 io_out[0]
*77 io_out[10]
*78 io_out[11]
*79 io_out[12]
*80 io_out[13]
*81 io_out[14]
*82 io_out[15]
*83 io_out[16]
*84 io_out[17]
*85 io_out[18]
*86 io_out[19]
*87 io_out[1]
*88 io_out[20]
*89 io_out[21]
*90 io_out[22]
*91 io_out[23]
*92 io_out[24]
*93 io_out[25]
*94 io_out[26]
*95 io_out[27]
*96 io_out[28]
*97 io_out[29]
*98 io_out[2]
*99 io_out[30]
*100 io_out[31]
*101 io_out[32]
*102 io_out[33]
*103 io_out[34]
*104 io_out[35]
*105 io_out[36]
*106 io_out[37]
*107 io_out[3]
*108 io_out[4]
*109 io_out[5]
*110 io_out[6]
*111 io_out[7]
*112 io_out[8]
*113 io_out[9]
*114 la_data_in[0]
*115 la_data_in[100]
*116 la_data_in[101]
*117 la_data_in[102]
*118 la_data_in[103]
*119 la_data_in[104]
*120 la_data_in[105]
*121 la_data_in[106]
*122 la_data_in[107]
*123 la_data_in[108]
*124 la_data_in[109]
*125 la_data_in[10]
*126 la_data_in[110]
*127 la_data_in[111]
*128 la_data_in[112]
*129 la_data_in[113]
*130 la_data_in[114]
*131 la_data_in[115]
*132 la_data_in[116]
*133 la_data_in[117]
*134 la_data_in[118]
*135 la_data_in[119]
*136 la_data_in[11]
*137 la_data_in[120]
*138 la_data_in[121]
*139 la_data_in[122]
*140 la_data_in[123]
*141 la_data_in[124]
*142 la_data_in[125]
*143 la_data_in[126]
*144 la_data_in[127]
*145 la_data_in[12]
*146 la_data_in[13]
*147 la_data_in[14]
*148 la_data_in[15]
*149 la_data_in[16]
*150 la_data_in[17]
*151 la_data_in[18]
*152 la_data_in[19]
*153 la_data_in[1]
*154 la_data_in[20]
*155 la_data_in[21]
*156 la_data_in[22]
*157 la_data_in[23]
*158 la_data_in[24]
*159 la_data_in[25]
*160 la_data_in[26]
*161 la_data_in[27]
*162 la_data_in[28]
*163 la_data_in[29]
*164 la_data_in[2]
*165 la_data_in[30]
*166 la_data_in[31]
*167 la_data_in[32]
*168 la_data_in[33]
*169 la_data_in[34]
*170 la_data_in[35]
*171 la_data_in[36]
*172 la_data_in[37]
*173 la_data_in[38]
*174 la_data_in[39]
*175 la_data_in[3]
*176 la_data_in[40]
*177 la_data_in[41]
*178 la_data_in[42]
*179 la_data_in[43]
*180 la_data_in[44]
*181 la_data_in[45]
*182 la_data_in[46]
*183 la_data_in[47]
*184 la_data_in[48]
*185 la_data_in[49]
*186 la_data_in[4]
*187 la_data_in[50]
*188 la_data_in[51]
*189 la_data_in[52]
*190 la_data_in[53]
*191 la_data_in[54]
*192 la_data_in[55]
*193 la_data_in[56]
*194 la_data_in[57]
*195 la_data_in[58]
*196 la_data_in[59]
*197 la_data_in[5]
*198 la_data_in[60]
*199 la_data_in[61]
*200 la_data_in[62]
*201 la_data_in[63]
*202 la_data_in[64]
*203 la_data_in[65]
*204 la_data_in[66]
*205 la_data_in[67]
*206 la_data_in[68]
*207 la_data_in[69]
*208 la_data_in[6]
*209 la_data_in[70]
*210 la_data_in[71]
*211 la_data_in[72]
*212 la_data_in[73]
*213 la_data_in[74]
*214 la_data_in[75]
*215 la_data_in[76]
*216 la_data_in[77]
*217 la_data_in[78]
*218 la_data_in[79]
*219 la_data_in[7]
*220 la_data_in[80]
*221 la_data_in[81]
*222 la_data_in[82]
*223 la_data_in[83]
*224 la_data_in[84]
*225 la_data_in[85]
*226 la_data_in[86]
*227 la_data_in[87]
*228 la_data_in[88]
*229 la_data_in[89]
*230 la_data_in[8]
*231 la_data_in[90]
*232 la_data_in[91]
*233 la_data_in[92]
*234 la_data_in[93]
*235 la_data_in[94]
*236 la_data_in[95]
*237 la_data_in[96]
*238 la_data_in[97]
*239 la_data_in[98]
*240 la_data_in[99]
*241 la_data_in[9]
*242 la_data_out[0]
*243 la_data_out[100]
*244 la_data_out[101]
*245 la_data_out[102]
*246 la_data_out[103]
*247 la_data_out[104]
*248 la_data_out[105]
*249 la_data_out[106]
*250 la_data_out[107]
*251 la_data_out[108]
*252 la_data_out[109]
*253 la_data_out[10]
*254 la_data_out[110]
*255 la_data_out[111]
*256 la_data_out[112]
*257 la_data_out[113]
*258 la_data_out[114]
*259 la_data_out[115]
*260 la_data_out[116]
*261 la_data_out[117]
*262 la_data_out[118]
*263 la_data_out[119]
*264 la_data_out[11]
*265 la_data_out[120]
*266 la_data_out[121]
*267 la_data_out[122]
*268 la_data_out[123]
*269 la_data_out[124]
*270 la_data_out[125]
*271 la_data_out[126]
*272 la_data_out[127]
*273 la_data_out[12]
*274 la_data_out[13]
*275 la_data_out[14]
*276 la_data_out[15]
*277 la_data_out[16]
*278 la_data_out[17]
*279 la_data_out[18]
*280 la_data_out[19]
*281 la_data_out[1]
*282 la_data_out[20]
*283 la_data_out[21]
*284 la_data_out[22]
*285 la_data_out[23]
*286 la_data_out[24]
*287 la_data_out[25]
*288 la_data_out[26]
*289 la_data_out[27]
*290 la_data_out[28]
*291 la_data_out[29]
*292 la_data_out[2]
*293 la_data_out[30]
*294 la_data_out[31]
*295 la_data_out[32]
*296 la_data_out[33]
*297 la_data_out[34]
*298 la_data_out[35]
*299 la_data_out[36]
*300 la_data_out[37]
*301 la_data_out[38]
*302 la_data_out[39]
*303 la_data_out[3]
*304 la_data_out[40]
*305 la_data_out[41]
*306 la_data_out[42]
*307 la_data_out[43]
*308 la_data_out[44]
*309 la_data_out[45]
*310 la_data_out[46]
*311 la_data_out[47]
*312 la_data_out[48]
*313 la_data_out[49]
*314 la_data_out[4]
*315 la_data_out[50]
*316 la_data_out[51]
*317 la_data_out[52]
*318 la_data_out[53]
*319 la_data_out[54]
*320 la_data_out[55]
*321 la_data_out[56]
*322 la_data_out[57]
*323 la_data_out[58]
*324 la_data_out[59]
*325 la_data_out[5]
*326 la_data_out[60]
*327 la_data_out[61]
*328 la_data_out[62]
*329 la_data_out[63]
*330 la_data_out[64]
*331 la_data_out[65]
*332 la_data_out[66]
*333 la_data_out[67]
*334 la_data_out[68]
*335 la_data_out[69]
*336 la_data_out[6]
*337 la_data_out[70]
*338 la_data_out[71]
*339 la_data_out[72]
*340 la_data_out[73]
*341 la_data_out[74]
*342 la_data_out[75]
*343 la_data_out[76]
*344 la_data_out[77]
*345 la_data_out[78]
*346 la_data_out[79]
*347 la_data_out[7]
*348 la_data_out[80]
*349 la_data_out[81]
*350 la_data_out[82]
*351 la_data_out[83]
*352 la_data_out[84]
*353 la_data_out[85]
*354 la_data_out[86]
*355 la_data_out[87]
*356 la_data_out[88]
*357 la_data_out[89]
*358 la_data_out[8]
*359 la_data_out[90]
*360 la_data_out[91]
*361 la_data_out[92]
*362 la_data_out[93]
*363 la_data_out[94]
*364 la_data_out[95]
*365 la_data_out[96]
*366 la_data_out[97]
*367 la_data_out[98]
*368 la_data_out[99]
*369 la_data_out[9]
*370 la_oen[0]
*371 la_oen[100]
*372 la_oen[101]
*373 la_oen[102]
*374 la_oen[103]
*375 la_oen[104]
*376 la_oen[105]
*377 la_oen[106]
*378 la_oen[107]
*379 la_oen[108]
*380 la_oen[109]
*381 la_oen[10]
*382 la_oen[110]
*383 la_oen[111]
*384 la_oen[112]
*385 la_oen[113]
*386 la_oen[114]
*387 la_oen[115]
*388 la_oen[116]
*389 la_oen[117]
*390 la_oen[118]
*391 la_oen[119]
*392 la_oen[11]
*393 la_oen[120]
*394 la_oen[121]
*395 la_oen[122]
*396 la_oen[123]
*397 la_oen[124]
*398 la_oen[125]
*399 la_oen[126]
*400 la_oen[127]
*401 la_oen[12]
*402 la_oen[13]
*403 la_oen[14]
*404 la_oen[15]
*405 la_oen[16]
*406 la_oen[17]
*407 la_oen[18]
*408 la_oen[19]
*409 la_oen[1]
*410 la_oen[20]
*411 la_oen[21]
*412 la_oen[22]
*413 la_oen[23]
*414 la_oen[24]
*415 la_oen[25]
*416 la_oen[26]
*417 la_oen[27]
*418 la_oen[28]
*419 la_oen[29]
*420 la_oen[2]
*421 la_oen[30]
*422 la_oen[31]
*423 la_oen[32]
*424 la_oen[33]
*425 la_oen[34]
*426 la_oen[35]
*427 la_oen[36]
*428 la_oen[37]
*429 la_oen[38]
*430 la_oen[39]
*431 la_oen[3]
*432 la_oen[40]
*433 la_oen[41]
*434 la_oen[42]
*435 la_oen[43]
*436 la_oen[44]
*437 la_oen[45]
*438 la_oen[46]
*439 la_oen[47]
*440 la_oen[48]
*441 la_oen[49]
*442 la_oen[4]
*443 la_oen[50]
*444 la_oen[51]
*445 la_oen[52]
*446 la_oen[53]
*447 la_oen[54]
*448 la_oen[55]
*449 la_oen[56]
*450 la_oen[57]
*451 la_oen[58]
*452 la_oen[59]
*453 la_oen[5]
*454 la_oen[60]
*455 la_oen[61]
*456 la_oen[62]
*457 la_oen[63]
*458 la_oen[64]
*459 la_oen[65]
*460 la_oen[66]
*461 la_oen[67]
*462 la_oen[68]
*463 la_oen[69]
*464 la_oen[6]
*465 la_oen[70]
*466 la_oen[71]
*467 la_oen[72]
*468 la_oen[73]
*469 la_oen[74]
*470 la_oen[75]
*471 la_oen[76]
*472 la_oen[77]
*473 la_oen[78]
*474 la_oen[79]
*475 la_oen[7]
*476 la_oen[80]
*477 la_oen[81]
*478 la_oen[82]
*479 la_oen[83]
*480 la_oen[84]
*481 la_oen[85]
*482 la_oen[86]
*483 la_oen[87]
*484 la_oen[88]
*485 la_oen[89]
*486 la_oen[8]
*487 la_oen[90]
*488 la_oen[91]
*489 la_oen[92]
*490 la_oen[93]
*491 la_oen[94]
*492 la_oen[95]
*493 la_oen[96]
*494 la_oen[97]
*495 la_oen[98]
*496 la_oen[99]
*497 la_oen[9]
*498 vccd1
*499 vccd2
*500 vdda1
*501 vdda2
*502 vssa1
*503 vssa2
*504 vssd1
*505 vssd2
*506 wb_clk_i
*507 wb_rst_i
*508 wbs_ack_o
*509 wbs_adr_i[0]
*510 wbs_adr_i[10]
*511 wbs_adr_i[11]
*512 wbs_adr_i[12]
*513 wbs_adr_i[13]
*514 wbs_adr_i[14]
*515 wbs_adr_i[15]
*516 wbs_adr_i[16]
*517 wbs_adr_i[17]
*518 wbs_adr_i[18]
*519 wbs_adr_i[19]
*520 wbs_adr_i[1]
*521 wbs_adr_i[20]
*522 wbs_adr_i[21]
*523 wbs_adr_i[22]
*524 wbs_adr_i[23]
*525 wbs_adr_i[24]
*526 wbs_adr_i[25]
*527 wbs_adr_i[26]
*528 wbs_adr_i[27]
*529 wbs_adr_i[28]
*530 wbs_adr_i[29]
*531 wbs_adr_i[2]
*532 wbs_adr_i[30]
*533 wbs_adr_i[31]
*534 wbs_adr_i[3]
*535 wbs_adr_i[4]
*536 wbs_adr_i[5]
*537 wbs_adr_i[6]
*538 wbs_adr_i[7]
*539 wbs_adr_i[8]
*540 wbs_adr_i[9]
*541 wbs_cyc_i
*542 wbs_dat_i[0]
*543 wbs_dat_i[10]
*544 wbs_dat_i[11]
*545 wbs_dat_i[12]
*546 wbs_dat_i[13]
*547 wbs_dat_i[14]
*548 wbs_dat_i[15]
*549 wbs_dat_i[16]
*550 wbs_dat_i[17]
*551 wbs_dat_i[18]
*552 wbs_dat_i[19]
*553 wbs_dat_i[1]
*554 wbs_dat_i[20]
*555 wbs_dat_i[21]
*556 wbs_dat_i[22]
*557 wbs_dat_i[23]
*558 wbs_dat_i[24]
*559 wbs_dat_i[25]
*560 wbs_dat_i[26]
*561 wbs_dat_i[27]
*562 wbs_dat_i[28]
*563 wbs_dat_i[29]
*564 wbs_dat_i[2]
*565 wbs_dat_i[30]
*566 wbs_dat_i[31]
*567 wbs_dat_i[3]
*568 wbs_dat_i[4]
*569 wbs_dat_i[5]
*570 wbs_dat_i[6]
*571 wbs_dat_i[7]
*572 wbs_dat_i[8]
*573 wbs_dat_i[9]
*574 wbs_dat_o[0]
*575 wbs_dat_o[10]
*576 wbs_dat_o[11]
*577 wbs_dat_o[12]
*578 wbs_dat_o[13]
*579 wbs_dat_o[14]
*580 wbs_dat_o[15]
*581 wbs_dat_o[16]
*582 wbs_dat_o[17]
*583 wbs_dat_o[18]
*584 wbs_dat_o[19]
*585 wbs_dat_o[1]
*586 wbs_dat_o[20]
*587 wbs_dat_o[21]
*588 wbs_dat_o[22]
*589 wbs_dat_o[23]
*590 wbs_dat_o[24]
*591 wbs_dat_o[25]
*592 wbs_dat_o[26]
*593 wbs_dat_o[27]
*594 wbs_dat_o[28]
*595 wbs_dat_o[29]
*596 wbs_dat_o[2]
*597 wbs_dat_o[30]
*598 wbs_dat_o[31]
*599 wbs_dat_o[3]
*600 wbs_dat_o[4]
*601 wbs_dat_o[5]
*602 wbs_dat_o[6]
*603 wbs_dat_o[7]
*604 wbs_dat_o[8]
*605 wbs_dat_o[9]
*606 wbs_sel_i[0]
*607 wbs_sel_i[1]
*608 wbs_sel_i[2]
*609 wbs_sel_i[3]
*610 wbs_stb_i
*611 wbs_we_i
*612 _0000_
*613 _0001_
*614 _0002_
*615 _0003_
*616 _0004_
*617 _0005_
*618 _0006_
*619 _0007_
*620 _0008_
*621 _0009_
*622 _0010_
*623 _0011_
*624 _0012_
*625 _0013_
*626 _0014_
*627 _0015_
*628 _0016_
*629 _0017_
*630 _0018_
*631 _0019_
*632 _0020_
*633 _0021_
*634 _0022_
*635 _0023_
*636 _0024_
*637 _0025_
*638 _0026_
*639 _0027_
*640 _0028_
*641 _0029_
*642 _0030_
*643 _0031_
*644 _0032_
*645 _0033_
*646 _0034_
*647 _0035_
*648 _0036_
*649 _0037_
*650 _0038_
*651 _0039_
*652 _0040_
*653 _0041_
*654 _0042_
*655 _0043_
*656 _0044_
*657 _0045_
*658 _0046_
*659 _0047_
*660 _0048_
*661 _0049_
*662 _0050_
*663 _0051_
*664 _0052_
*665 _0053_
*666 _0054_
*667 _0055_
*668 _0056_
*669 _0057_
*670 _0058_
*671 _0059_
*672 _0060_
*673 _0061_
*674 _0062_
*675 _0063_
*676 _0064_
*677 _0065_
*678 _0066_
*679 _0067_
*680 _0068_
*681 _0069_
*682 _0070_
*683 _0071_
*684 _0072_
*685 _0073_
*686 _0074_
*687 _0075_
*688 _0076_
*689 _0077_
*690 _0078_
*691 _0079_
*692 _0080_
*693 _0081_
*694 _0082_
*695 _0083_
*696 _0084_
*697 _0085_
*698 _0086_
*699 _0087_
*700 _0088_
*701 _0089_
*702 _0090_
*703 _0091_
*704 _0092_
*705 _0093_
*706 _0094_
*707 _0095_
*708 _0096_
*709 _0097_
*710 _0098_
*711 _0099_
*712 _0100_
*713 _0101_
*714 _0102_
*715 _0103_
*716 _0104_
*717 _0105_
*718 _0106_
*719 _0107_
*720 _0108_
*721 _0109_
*722 _0110_
*723 _0111_
*724 _0112_
*725 _0113_
*726 _0114_
*727 _0115_
*728 _0116_
*729 _0117_
*730 _0118_
*731 _0119_
*732 _0120_
*733 _0121_
*734 _0122_
*735 _0123_
*736 _0124_
*737 _0125_
*738 _0126_
*739 _0127_
*740 _0128_
*741 _0129_
*742 _0130_
*743 _0131_
*744 _0132_
*745 _0133_
*746 _0134_
*747 _0135_
*748 _0136_
*749 _0137_
*750 _0138_
*751 _0139_
*752 _0140_
*753 _0141_
*754 _0142_
*755 _0143_
*756 _0144_
*757 _0145_
*758 _0146_
*759 _0147_
*760 _0148_
*761 _0149_
*762 _0150_
*763 _0151_
*764 _0152_
*765 _0153_
*766 _0154_
*767 _0155_
*768 _0156_
*769 _0157_
*770 _0158_
*771 _0159_
*772 _0160_
*773 _0161_
*774 _0162_
*775 _0163_
*776 _0164_
*777 _0165_
*778 _0166_
*779 _0167_
*780 _0168_
*781 _0169_
*782 _0170_
*783 _0171_
*784 _0172_
*785 _0173_
*786 _0174_
*787 _0175_
*788 _0176_
*789 _0177_
*790 _0178_
*791 _0179_
*792 _0180_
*793 _0181_
*794 _0182_
*795 _0183_
*796 _0184_
*797 _0185_
*798 _0186_
*799 _0187_
*800 _0188_
*801 _0189_
*802 _0190_
*803 _0191_
*804 _0192_
*805 _0193_
*806 _0194_
*807 _0195_
*808 _0196_
*809 _0197_
*810 _0198_
*811 _0199_
*812 _0200_
*813 _0201_
*814 _0202_
*815 _0203_
*816 _0204_
*817 _0205_
*818 _0206_
*819 _0207_
*820 _0208_
*821 _0209_
*822 _0210_
*823 _0211_
*824 _0212_
*825 _0213_
*826 _0214_
*827 _0215_
*828 _0216_
*829 _0217_
*830 _0218_
*831 _0219_
*832 _0220_
*833 _0221_
*834 _0222_
*835 _0223_
*836 _0224_
*837 _0225_
*838 _0226_
*839 _0227_
*840 _0228_
*841 _0229_
*842 _0230_
*843 _0231_
*844 _0232_
*845 _0233_
*846 _0234_
*847 _0235_
*848 _0236_
*849 _0237_
*850 _0238_
*851 _0239_
*852 _0240_
*853 _0241_
*854 _0242_
*855 _0243_
*856 _0244_
*857 _0245_
*858 _0246_
*859 _0247_
*860 _0248_
*861 _0249_
*862 _0250_
*863 _0251_
*864 _0252_
*865 _0253_
*866 _0254_
*867 _0255_
*868 _0256_
*869 _0257_
*870 _0258_
*871 _0259_
*872 _0260_
*873 _0261_
*874 _0262_
*875 _0263_
*876 _0264_
*877 _0265_
*878 _0266_
*879 _0267_
*880 _0268_
*881 _0269_
*882 _0270_
*883 _0271_
*884 _0272_
*885 _0273_
*886 _0274_
*887 _0275_
*888 _0276_
*889 _0277_
*890 _0278_
*891 _0279_
*892 _0280_
*893 _0281_
*894 _0282_
*895 _0283_
*896 _0284_
*897 _0285_
*898 _0286_
*899 _0287_
*900 _0288_
*901 _0289_
*902 _0290_
*903 _0291_
*904 _0292_
*905 _0293_
*906 _0294_
*907 _0295_
*908 _0296_
*909 _0297_
*910 _0298_
*911 _0299_
*912 _0300_
*913 _0301_
*914 _0302_
*915 _0303_
*916 _0304_
*917 _0305_
*918 _0306_
*919 _0307_
*920 _0308_
*921 _0309_
*922 _0310_
*923 _0311_
*924 _0312_
*925 _0313_
*926 _0314_
*927 _0315_
*928 _0316_
*929 _0317_
*930 _0318_
*931 _0319_
*932 _0320_
*933 _0321_
*934 _0322_
*935 _0323_
*936 _0324_
*937 _0325_
*938 _0326_
*939 _0327_
*940 _0328_
*941 _0329_
*942 _0330_
*943 _0331_
*944 _0332_
*945 _0333_
*946 _0334_
*947 _0335_
*948 _0336_
*949 _0337_
*950 _0338_
*951 _0339_
*952 _0340_
*953 _0341_
*954 _0342_
*955 _0343_
*956 _0344_
*957 _0345_
*958 _0346_
*959 _0347_
*960 _0348_
*961 _0349_
*962 _0350_
*963 _0351_
*964 _0352_
*965 _0353_
*966 _0354_
*967 _0355_
*968 _0356_
*969 _0357_
*970 _0358_
*971 _0359_
*972 _0360_
*973 _0361_
*974 _0362_
*975 _0363_
*976 _0364_
*977 _0365_
*978 _0366_
*979 _0367_
*980 _0368_
*981 _0369_
*982 _0370_
*983 _0371_
*984 _0372_
*985 _0373_
*986 _0374_
*987 _0375_
*988 _0376_
*989 _0377_
*990 _0378_
*991 _0379_
*992 _0380_
*993 _0381_
*994 _0382_
*995 _0383_
*996 _0384_
*997 _0385_
*998 _0386_
*999 _0387_
*1000 _0388_
*1001 _0389_
*1002 _0390_
*1003 _0391_
*1004 _0392_
*1005 _0393_
*1006 _0394_
*1007 _0395_
*1008 _0396_
*1009 _0397_
*1010 _0398_
*1011 _0399_
*1012 _0400_
*1013 _0401_
*1014 counter.clk
*1015 clknet_0_counter.clk
*1016 clknet_1_0_0_counter.clk
*1017 clknet_1_1_0_counter.clk
*1018 clknet_2_0_0_counter.clk
*1019 clknet_2_1_0_counter.clk
*1020 clknet_2_2_0_counter.clk
*1021 clknet_2_3_0_counter.clk
*1022 clknet_3_0_0_counter.clk
*1023 clknet_3_1_0_counter.clk
*1024 clknet_3_2_0_counter.clk
*1025 clknet_3_3_0_counter.clk
*1026 clknet_3_4_0_counter.clk
*1027 clknet_3_5_0_counter.clk
*1028 clknet_3_6_0_counter.clk
*1029 clknet_3_7_0_counter.clk

*D_NET *0 0
*CONN
*P io_in[0] I
*CAP
*RES
*END

*D_NET *1 0
*CONN
*P io_in[10] I
*CAP
*RES
*END

*D_NET *2 0
*CONN
*P io_in[11] I
*CAP
*RES
*END

*D_NET *3 0
*CONN
*P io_in[12] I
*CAP
*RES
*END

*D_NET *4 0
*CONN
*P io_in[13] I
*CAP
*RES
*END

*D_NET *5 0
*CONN
*P io_in[14] I
*CAP
*RES
*END

*D_NET *6 0
*CONN
*P io_in[15] I
*CAP
*RES
*END

*D_NET *7 0
*CONN
*P io_in[16] I
*CAP
*RES
*END

*D_NET *8 0
*CONN
*P io_in[17] I
*CAP
*RES
*END

*D_NET *9 0
*CONN
*P io_in[18] I
*CAP
*RES
*END

*D_NET *10 0
*CONN
*P io_in[19] I
*CAP
*RES
*END

*D_NET *11 0
*CONN
*P io_in[1] I
*CAP
*RES
*END

*D_NET *12 0
*CONN
*P io_in[20] I
*CAP
*RES
*END

*D_NET *13 0
*CONN
*P io_in[21] I
*CAP
*RES
*END

*D_NET *14 0
*CONN
*P io_in[22] I
*CAP
*RES
*END

*D_NET *15 0
*CONN
*P io_in[23] I
*CAP
*RES
*END

*D_NET *16 0
*CONN
*P io_in[24] I
*CAP
*RES
*END

*D_NET *17 0
*CONN
*P io_in[25] I
*CAP
*RES
*END

*D_NET *18 0
*CONN
*P io_in[26] I
*CAP
*RES
*END

*D_NET *19 0
*CONN
*P io_in[27] I
*CAP
*RES
*END

*D_NET *20 0
*CONN
*P io_in[28] I
*CAP
*RES
*END

*D_NET *21 0
*CONN
*P io_in[29] I
*CAP
*RES
*END

*D_NET *22 0
*CONN
*P io_in[2] I
*CAP
*RES
*END

*D_NET *23 0
*CONN
*P io_in[30] I
*CAP
*RES
*END

*D_NET *24 0
*CONN
*P io_in[31] I
*CAP
*RES
*END

*D_NET *25 0
*CONN
*P io_in[32] I
*CAP
*RES
*END

*D_NET *26 0
*CONN
*P io_in[33] I
*CAP
*RES
*END

*D_NET *27 0
*CONN
*P io_in[34] I
*CAP
*RES
*END

*D_NET *28 0
*CONN
*P io_in[35] I
*CAP
*RES
*END

*D_NET *29 0
*CONN
*P io_in[36] I
*CAP
*RES
*END

*D_NET *30 0
*CONN
*P io_in[37] I
*CAP
*RES
*END

*D_NET *31 0
*CONN
*P io_in[3] I
*CAP
*RES
*END

*D_NET *32 0
*CONN
*P io_in[4] I
*CAP
*RES
*END

*D_NET *33 0
*CONN
*P io_in[5] I
*CAP
*RES
*END

*D_NET *34 0
*CONN
*P io_in[6] I
*CAP
*RES
*END

*D_NET *35 0
*CONN
*P io_in[7] I
*CAP
*RES
*END

*D_NET *36 0
*CONN
*P io_in[8] I
*CAP
*RES
*END

*D_NET *37 0
*CONN
*P io_in[9] I
*CAP
*RES
*END

*D_NET *38 0.00069879332004
*CONN
*P io_oeb[0] O
*I _0909_:X O
*CAP
0 *38:1 1.1906903370000003e-05
1 *38:2 1.1906903370000003e-05
2 *38:3 0.00033748975665
3 *38:4 0.00033748975665
4 _0909_:X 0.0
*RES
0 *38:1 *38:2 0.15178571428571427
1 *38:3 *38:4 1.1891
2 _0909_:X _0909_:X 0
3 _0909_:X *38:2 0
4 *38:1 *38:3 0
*END

*D_NET *39 0.000751758467
*CONN
*P io_oeb[10] O
*I _0919_:X O
*CAP
5 *39:1 3.838947685e-05
6 *39:2 3.838947685e-05
7 *39:3 0.00033748975665
8 *39:4 0.00033748975665
9 _0919_:X 0.0
*RES
5 *39:1 *39:2 0.7589285714285713
6 *39:3 *39:4 1.1891
7 _0919_:X _0919_:X 0
8 _0919_:X *39:1 0
9 *39:2 *39:3 0
*END

*D_NET *40 0.00069879332004
*CONN
*P io_oeb[11] O
*I _0920_:X O
*CAP
10 *40:1 1.1906903370000003e-05
11 *40:2 1.1906903370000003e-05
12 *40:3 0.00033748975665
13 *40:4 0.00033748975665
14 _0920_:X 0.0
*RES
10 *40:1 *40:2 0.15178571428571427
11 *40:3 *40:4 1.1891
12 _0920_:X _0920_:X 0
13 _0920_:X *40:2 0
14 *40:1 *40:3 0
*END

*D_NET *41 0.00048877185232
*CONN
*P io_oeb[12] O
*I _0921_:X O
*CAP
15 *41:1 2.514819011e-05
16 *41:2 2.514819011e-05
17 *41:3 0.00021923773604999998
18 *41:4 0.00021923773604999998
19 _0921_:X 0.0
*RES
15 *41:1 *41:2 0.45535714285714285
16 *41:3 *41:4 0.7567
17 _0921_:X _0921_:X 0
18 _0921_:X *41:2 0
19 *41:1 *41:4 0
*END

*D_NET *42 0.0010804921279400001
*CONN
*P io_oeb[13] O
*I _0922_:X O
*CAP
20 _0922_:X 2.5170264480000005e-05
21 *42:1 2.5170264480000005e-05
22 *42:2 0.0005150757994900001
23 *42:3 0.0005150757994900001
*RES
20 _0922_:X *42:1 0.4107142857142857
21 *42:2 *42:3 11.687499999999998
22 _0922_:X _0922_:X 0
23 *42:1 *42:2 0
*END

*D_NET *43 0.0008686315401
*CONN
*P io_oeb[14] O
*I _0923_:X O
*CAP
24 _0923_:X 2.5170264480000005e-05
25 *43:1 2.5170264480000005e-05
26 *43:2 0.00040914550557
27 *43:3 0.00040914550557
*RES
24 _0923_:X *43:1 0.4107142857142857
25 *43:2 *43:3 9.25892857142857
26 *43:1 *43:3 0
27 _0923_:X _0923_:X 0
*END

*D_NET *44 0.00072527589352
*CONN
*P io_oeb[15] O
*I _0924_:X O
*CAP
28 *44:1 2.514819011e-05
29 *44:2 2.514819011e-05
30 *44:3 0.00033748975665
31 *44:4 0.00033748975665
32 _0924_:X 0.0
*RES
28 *44:1 *44:2 0.45535714285714285
29 *44:3 *44:4 1.1891
30 _0924_:X _0924_:X 0
31 _0924_:X *44:2 0
32 *44:1 *44:3 0
*END

*D_NET *45 0.0005152544258
*CONN
*P io_oeb[16] O
*I _0925_:X O
*CAP
33 *45:1 3.838947685e-05
34 *45:2 3.838947685e-05
35 *45:3 0.00021923773604999998
36 *45:4 0.00021923773604999998
37 _0925_:X 0.0
*RES
33 *45:1 *45:2 0.7589285714285713
34 *45:3 *45:4 0.7567
35 _0925_:X _0925_:X 0
36 _0925_:X *45:1 0
37 *45:2 *45:4 0
*END

*D_NET *46 0.000751758467
*CONN
*P io_oeb[17] O
*I _0926_:X O
*CAP
38 *46:1 3.838947685e-05
39 *46:2 3.838947685e-05
40 *46:3 0.00033748975665
41 *46:4 0.00033748975665
42 _0926_:X 0.0
*RES
38 *46:1 *46:2 0.7589285714285713
39 *46:3 *46:4 1.1891
40 _0926_:X _0926_:X 0
41 _0926_:X *46:1 0
42 *46:2 *46:3 0
*END

*D_NET *47 0.0009023493915
*CONN
*P io_oeb[18] O
*I _0927_:X O
*CAP
43 *47:1 8.473398044000001e-05
44 *47:2 0.00014376428662
45 *47:3 0.00028279779739
46 *47:4 0.00022376749121
47 *47:5 8.364291792e-05
48 _0927_:X 8.364291792e-05
*RES
43 *47:1 *47:2 1.8214285714285714
44 *47:2 *47:3 1.232142857142857
45 *47:3 *47:4 5.008928571428571
46 *47:5 _0927_:X 1.6428571428571428
47 *47:5 *47:4 0
48 _0927_:X _0927_:X 0
*END

*D_NET *48 0.00073473449018
*CONN
*P io_oeb[19] O
*I _0928_:X O
*CAP
49 *48:1 0.00030321521165
50 *48:2 0.00030321521165
51 *48:3 6.415203344e-05
52 _0928_:X 6.415203344e-05
*RES
49 *48:1 *48:2 6.830357142857142
50 *48:3 _0928_:X 1.232142857142857
51 *48:3 *48:2 0
52 _0928_:X _0928_:X 0
*END

*D_NET *49 0.0010804921279400001
*CONN
*P io_oeb[1] O
*I _0910_:X O
*CAP
53 _0910_:X 2.5170264480000005e-05
54 *49:1 2.5170264480000005e-05
55 *49:2 0.0005150757994900001
56 *49:3 0.0005150757994900001
*RES
53 _0910_:X *49:1 0.4107142857142857
54 *49:2 *49:3 11.687499999999998
55 _0910_:X _0910_:X 0
56 *49:1 *49:2 0
*END

*D_NET *50 0.000751758467
*CONN
*P io_oeb[20] O
*I _0929_:X O
*CAP
57 *50:1 3.838947685e-05
58 *50:2 3.838947685e-05
59 *50:3 0.00033748975665
60 *50:4 0.00033748975665
61 _0929_:X 0.0
*RES
57 *50:1 *50:2 0.7589285714285713
58 *50:3 *50:4 1.1891
59 _0929_:X _0929_:X 0
60 _0929_:X *50:1 0
61 *50:2 *50:3 0
*END

*D_NET *51 0.0010301515989800001
*CONN
*P io_oeb[21] O
*I _0930_:X O
*CAP
62 *51:1 0.0005150757994900001
63 *51:2 0.0005150757994900001
64 _0930_:X 0.0
*RES
62 *51:1 *51:2 11.687499999999998
63 _0930_:X _0930_:X 0
64 _0930_:X *51:1 0
*END

*D_NET *52 0.0007800801605999999
*CONN
*P io_oeb[22] O
*I _0931_:X O
*CAP
65 *52:1 0.00021923773604999998
66 *52:2 0.00021923773604999998
67 *52:3 0.00017080234425000002
68 *52:4 0.00017080234425000002
69 _0931_:X 0.0
*RES
65 *52:1 *52:2 0.7567
66 *52:3 *52:4 3.7946428571428568
67 *52:3 *52:2 0
68 _0931_:X _0931_:X 0
69 _0931_:X *52:4 0
*END

*D_NET *53 0.0005152544258
*CONN
*P io_oeb[23] O
*I _0932_:X O
*CAP
70 *53:1 3.838947685e-05
71 *53:2 3.838947685e-05
72 *53:3 0.00021923773604999998
73 *53:4 0.00021923773604999998
74 _0932_:X 0.0
*RES
70 *53:1 *53:2 0.7589285714285713
71 *53:3 *53:4 0.7567
72 _0932_:X _0932_:X 0
73 _0932_:X *53:1 0
74 *53:2 *53:4 0
*END

*D_NET *54 0.0005152544258
*CONN
*P io_oeb[24] O
*I _0933_:X O
*CAP
75 *54:1 3.838947685e-05
76 *54:2 3.838947685e-05
77 *54:3 0.00021923773604999998
78 *54:4 0.00021923773604999998
79 _0933_:X 0.0
*RES
75 *54:1 *54:2 0.7589285714285713
76 *54:3 *54:4 0.7567
77 _0933_:X _0933_:X 0
78 _0933_:X *54:1 0
79 *54:2 *54:4 0
*END

*D_NET *55 0.0008126980281
*CONN
*P io_oeb[25] O
*I _0934_:X O
*CAP
80 *55:1 0.00030321521165
81 *55:2 0.00030321521165
82 *55:3 0.0001031338024
83 _0934_:X 0.0001031338024
*RES
80 *55:1 *55:2 6.830357142857142
81 *55:3 _0934_:X 2.0535714285714284
82 *55:3 *55:2 0
83 _0934_:X _0934_:X 0
*END

*D_NET *56 0.0009686251039399999
*CONN
*P io_oeb[26] O
*I _0935_:X O
*CAP
84 *56:1 0.00030321521165
85 *56:2 0.00030321521165
86 *56:3 0.00018109734031999995
87 _0935_:X 0.00018109734031999995
*RES
84 *56:1 *56:2 6.830357142857142
85 *56:3 _0935_:X 3.6964285714285707
86 *56:3 *56:2 0
87 _0935_:X _0935_:X 0
*END

*D_NET *57 0.0023161515608
*CONN
*P io_oeb[27] O
*I _0936_:X O
*CAP
88 *57:1 0.00018109734031999995
89 _0936_:X 0.00018109734031999995
90 *57:2 0.0004621106525300001
91 *57:3 0.0004621106525300001
92 *57:4 0.00051486778755
93 *57:5 0.00051486778755
*RES
88 *57:1 _0936_:X 3.6964285714285707
89 *57:2 *57:3 10.473214285714285
90 *57:4 *57:5 1.8377
91 _0936_:X _0936_:X 0
92 *57:1 *57:2 0
93 *57:3 *57:4 0
*END

*D_NET *58 0.00115845566586
*CONN
*P io_oeb[28] O
*I _0937_:X O
*CAP
94 _0937_:X 6.415203344e-05
95 *58:1 6.415203344e-05
96 *58:2 0.0005150757994900001
97 *58:3 0.0005150757994900001
*RES
94 _0937_:X *58:1 1.232142857142857
95 *58:2 *58:3 11.687499999999998
96 _0937_:X _0937_:X 0
97 *58:1 *58:2 0
*END

*D_NET *59 0.0009076133090600001
*CONN
*P io_oeb[29] O
*I _0938_:X O
*CAP
98 _0938_:X 4.466114896e-05
99 *59:1 4.466114896e-05
100 *59:2 0.00040914550557
101 *59:3 0.00040914550557
*RES
98 _0938_:X *59:1 0.8214285714285714
99 *59:2 *59:3 9.25892857142857
100 *59:1 *59:3 0
101 _0938_:X _0938_:X 0
*END

*D_NET *60 0.0012754009727400002
*CONN
*P io_oeb[2] O
*I _0911_:X O
*CAP
102 *60:1 0.00012262468688
103 _0911_:X 0.00012262468688
104 *60:2 0.0005150757994900001
105 *60:3 0.0005150757994900001
*RES
102 *60:1 _0911_:X 2.464285714285714
103 *60:2 *60:3 11.687499999999998
104 _0911_:X _0911_:X 0
105 *60:1 *60:2 0
*END

*D_NET *61 0.0005152544258
*CONN
*P io_oeb[30] O
*I _0939_:X O
*CAP
106 *61:1 3.838947685e-05
107 *61:2 3.838947685e-05
108 *61:3 0.00021923773604999998
109 *61:4 0.00021923773604999998
110 _0939_:X 0.0
*RES
106 *61:1 *61:2 0.7589285714285713
107 *61:3 *61:4 0.7567
108 _0939_:X _0939_:X 0
109 _0939_:X *61:1 0
110 *61:2 *61:4 0
*END

*D_NET *62 0.00092964333498
*CONN
*P io_oeb[31] O
*I _0940_:X O
*CAP
111 *62:1 0.00030321521165
112 *62:2 0.00030321521165
113 *62:3 0.00016160645584
114 _0940_:X 0.00016160645584
*RES
111 *62:1 *62:2 6.830357142857142
112 *62:3 _0940_:X 3.2857142857142856
113 *62:3 *62:2 0
114 _0940_:X _0940_:X 0
*END

*D_NET *63 0.0010301515989800001
*CONN
*P io_oeb[32] O
*I _0941_:X O
*CAP
115 *63:1 0.0005150757994900001
116 *63:2 0.0005150757994900001
117 _0941_:X 0.0
*RES
115 *63:1 *63:2 11.687499999999998
116 _0941_:X _0941_:X 0
117 _0941_:X *63:1 0
*END

*D_NET *64 0.00115845566586
*CONN
*P io_oeb[33] O
*I _0942_:X O
*CAP
118 *64:1 6.415203344e-05
119 _0942_:X 6.415203344e-05
120 *64:2 0.0005150757994900001
121 *64:3 0.0005150757994900001
*RES
118 *64:1 _0942_:X 1.232142857142857
119 *64:2 *64:3 11.687499999999998
120 _0942_:X _0942_:X 0
121 *64:1 *64:2 0
*END

*D_NET *65 0.0008126980281
*CONN
*P io_oeb[34] O
*I _0943_:X O
*CAP
122 *65:1 0.00030321521165
123 *65:2 0.00030321521165
124 *65:3 0.0001031338024
125 _0943_:X 0.0001031338024
*RES
122 *65:1 *65:2 6.830357142857142
123 *65:3 _0943_:X 2.0535714285714284
124 *65:3 *65:2 0
125 _0943_:X _0943_:X 0
*END

*D_NET *66 0.0005152544258
*CONN
*P io_oeb[35] O
*I _0944_:X O
*CAP
126 *66:1 3.838947685e-05
127 *66:2 3.838947685e-05
128 *66:3 0.00021923773604999998
129 *66:4 0.00021923773604999998
130 _0944_:X 0.0
*RES
126 *66:1 *66:2 0.7589285714285713
127 *66:3 *66:4 0.7567
128 _0944_:X _0944_:X 0
129 _0944_:X *66:1 0
130 *66:2 *66:4 0
*END

*D_NET *67 0.08369752317377997
*CONN
*P io_oeb[36] O
*I _0944_:A I
*I _0943_:A I
*I _0942_:A I
*I _0941_:A I
*I _0940_:A I
*I _0939_:A I
*I _0938_:A I
*I _0937_:A I
*I _0936_:A I
*I _0935_:A I
*I _0934_:A I
*I _0933_:A I
*I _0932_:A I
*I _0931_:A I
*I _0930_:A I
*I _0929_:A I
*I _0928_:A I
*I _0927_:A I
*I _0926_:A I
*I _0925_:A I
*I _0924_:A I
*I _0923_:A I
*I _0922_:A I
*I _0921_:A I
*I _0920_:A I
*I _0919_:A I
*I _0918_:A I
*I _0917_:A I
*I _0916_:A I
*I _0915_:A I
*I _0914_:A I
*I _0913_:A I
*I _0912_:A I
*I _0911_:A I
*I _0910_:A I
*I _0909_:A I
*I _0567_:B1 I
*I _0540_:B1 I
*I _0531_:B1 I
*I _0520_:B1 I
*I _0405_:X O
*CAP
131 *67:1 0.0007335570307000001
132 *67:2 0.0021291783984000003
133 *67:3 0.0019173178105600004
134 *67:4 0.0015862856420600004
135 *67:5 0.0006461542835200001
136 *67:6 0.0027934706620799995
137 _0916_:A 0.0008833639830400001
138 _0934_:A 0.0016291021718399998
139 *67:7 0.0023307740131199997
140 *67:8 0.0014935966348800004
141 *67:9 0.0006461542835200001
142 *67:10 0.0004290074356800001
143 *67:11 0.0005600859197100001
144 *67:12 0.0005150757994900001
145 _0942_:A 0.00041498795408
146 *67:13 0.00041498795408
147 *67:14 4.501012022000001e-05
148 *67:15 0.0027934706620799995
149 _0918_:A 0.0002401647952
150 *67:16 0.00038168556512
151 _0943_:A 0.00040117644959999997
152 _0928_:A 0.00141470244256
153 _0931_:A 0.0011751324488000002
154 _0935_:A 0.00182401101664
155 _0927_:A 0.0014536842115199999
156 _0940_:A 0.001473175096
157 _0924_:A 0.0009412418350399999
158 *67:17 0.0034930309326200006
159 *67:18 0.0012817360470399998
160 *67:19 0.0010645891992
161 _0941_:A 4.8898297760000004e-05
162 *67:20 0.00044439536736
163 *67:21 0.0003954970696
164 *67:22 0.0002980426472
165 *67:23 0.0002980426472
166 *67:24 5.825140696e-05
167 *67:25 5.825140696e-05
168 *67:26 0.00177961868316
169 *67:27 0.0033871006387000005
170 _0914_:A 3.3986735200000003e-05
171 *67:28 0.0009475160164800001
172 *67:29 0.0005124423764800001
173 *67:30 0.0016922159359800003
174 *67:31 8.473398044000001e-05
175 *67:32 0.00086955247856
176 _0910_:A 2.008568592e-05
177 *67:33 0.00057718921136
178 _0922_:A 2.008568592e-05
179 *67:34 0.00015711667872000002
180 *67:35 0.00130707886304