* NGSPICE file created from caravel.ext - technology: sky130A

* Black-box entry subcircuit for gpio_control_block abstract view
.subckt gpio_control_block mgmt_gpio_in mgmt_gpio_oeb mgmt_gpio_out one pad_gpio_ana_en
+ pad_gpio_ana_pol pad_gpio_ana_sel pad_gpio_dm[0] pad_gpio_dm[1] pad_gpio_dm[2] pad_gpio_holdover
+ pad_gpio_ib_mode_sel pad_gpio_in pad_gpio_inenb pad_gpio_out pad_gpio_outenb pad_gpio_slow_sel
+ pad_gpio_vtrip_sel resetn serial_clock serial_data_in serial_data_out user_gpio_in
+ user_gpio_oeb user_gpio_out zero vccd vssd vccd1 vssd1
.ends

* Black-box entry subcircuit for chip_io abstract view
.subckt chip_io clock clock_core por flash_clk flash_clk_core flash_clk_ieb_core flash_clk_oeb_core
+ flash_csb flash_csb_core flash_csb_ieb_core flash_csb_oeb_core flash_io0 flash_io0_di_core
+ flash_io0_do_core flash_io0_ieb_core flash_io0_oeb_core flash_io1 flash_io1_di_core
+ flash_io1_do_core flash_io1_ieb_core flash_io1_oeb_core gpio gpio_in_core gpio_inenb_core
+ gpio_mode0_core gpio_mode1_core gpio_out_core gpio_outenb_core mprj_io[0] mprj_io_analog_en[0]
+ mprj_io_analog_pol[0] mprj_io_analog_sel[0] mprj_io_dm[0] mprj_io_dm[1] mprj_io_dm[2]
+ mprj_io_enh[0] mprj_io_hldh_n[0] mprj_io_holdover[0] mprj_io_ib_mode_sel[0] mprj_io_inp_dis[0]
+ mprj_io_oeb[0] mprj_io_out[0] mprj_io_slow_sel[0] mprj_io_vtrip_sel[0] mprj_io_in[0]
+ mprj_analog_io[3] mprj_io[10] mprj_io_analog_en[10] mprj_io_analog_pol[10] mprj_io_analog_sel[10]
+ mprj_io_dm[30] mprj_io_dm[31] mprj_io_dm[32] mprj_io_enh[10] mprj_io_hldh_n[10]
+ mprj_io_holdover[10] mprj_io_ib_mode_sel[10] mprj_io_inp_dis[10] mprj_io_oeb[10]
+ mprj_io_out[10] mprj_io_slow_sel[10] mprj_io_vtrip_sel[10] mprj_io_in[10] mprj_analog_io[4]
+ mprj_io[11] mprj_io_analog_en[11] mprj_io_analog_pol[11] mprj_io_analog_sel[11]
+ mprj_io_dm[33] mprj_io_dm[34] mprj_io_dm[35] mprj_io_enh[11] mprj_io_hldh_n[11]
+ mprj_io_holdover[11] mprj_io_ib_mode_sel[11] mprj_io_inp_dis[11] mprj_io_oeb[11]
+ mprj_io_out[11] mprj_io_slow_sel[11] mprj_io_vtrip_sel[11] mprj_io_in[11] mprj_analog_io[5]
+ mprj_io[12] mprj_io_analog_en[12] mprj_io_analog_pol[12] mprj_io_analog_sel[12]
+ mprj_io_dm[36] mprj_io_dm[37] mprj_io_dm[38] mprj_io_enh[12] mprj_io_hldh_n[12]
+ mprj_io_holdover[12] mprj_io_ib_mode_sel[12] mprj_io_inp_dis[12] mprj_io_oeb[12]
+ mprj_io_out[12] mprj_io_slow_sel[12] mprj_io_vtrip_sel[12] mprj_io_in[12] mprj_analog_io[6]
+ mprj_io[13] mprj_io_analog_en[13] mprj_io_analog_pol[13] mprj_io_analog_sel[13]
+ mprj_io_dm[39] mprj_io_dm[40] mprj_io_dm[41] mprj_io_enh[13] mprj_io_hldh_n[13]
+ mprj_io_holdover[13] mprj_io_ib_mode_sel[13] mprj_io_inp_dis[13] mprj_io_oeb[13]
+ mprj_io_out[13] mprj_io_slow_sel[13] mprj_io_vtrip_sel[13] mprj_io_in[13] mprj_analog_io[7]
+ mprj_io[14] mprj_io_analog_en[14] mprj_io_analog_pol[14] mprj_io_analog_sel[14]
+ mprj_io_dm[42] mprj_io_dm[43] mprj_io_dm[44] mprj_io_enh[14] mprj_io_hldh_n[14]
+ mprj_io_holdover[14] mprj_io_ib_mode_sel[14] mprj_io_inp_dis[14] mprj_io_oeb[14]
+ mprj_io_out[14] mprj_io_slow_sel[14] mprj_io_vtrip_sel[14] mprj_io_in[14] mprj_analog_io[8]
+ mprj_io[15] mprj_io_analog_en[15] mprj_io_analog_pol[15] mprj_io_analog_sel[15]
+ mprj_io_dm[45] mprj_io_dm[46] mprj_io_dm[47] mprj_io_enh[15] mprj_io_hldh_n[15]
+ mprj_io_holdover[15] mprj_io_ib_mode_sel[15] mprj_io_inp_dis[15] mprj_io_oeb[15]
+ mprj_io_out[15] mprj_io_slow_sel[15] mprj_io_vtrip_sel[15] mprj_io_in[15] mprj_analog_io[9]
+ mprj_io[16] mprj_io_analog_en[16] mprj_io_analog_pol[16] mprj_io_analog_sel[16]
+ mprj_io_dm[48] mprj_io_dm[49] mprj_io_dm[50] mprj_io_enh[16] mprj_io_hldh_n[16]
+ mprj_io_holdover[16] mprj_io_ib_mode_sel[16] mprj_io_inp_dis[16] mprj_io_oeb[16]
+ mprj_io_out[16] mprj_io_slow_sel[16] mprj_io_vtrip_sel[16] mprj_io_in[16] mprj_analog_io[10]
+ mprj_io[17] mprj_io_analog_en[17] mprj_io_analog_pol[17] mprj_io_analog_sel[17]
+ mprj_io_dm[51] mprj_io_dm[52] mprj_io_dm[53] mprj_io_enh[17] mprj_io_hldh_n[17]
+ mprj_io_holdover[17] mprj_io_ib_mode_sel[17] mprj_io_inp_dis[17] mprj_io_oeb[17]
+ mprj_io_out[17] mprj_io_slow_sel[17] mprj_io_vtrip_sel[17] mprj_io_in[17] mprj_io[1]
+ mprj_io_analog_en[1] mprj_io_analog_pol[1] mprj_io_analog_sel[1] mprj_io_dm[3] mprj_io_dm[4]
+ mprj_io_dm[5] mprj_io_enh[1] mprj_io_hldh_n[1] mprj_io_holdover[1] mprj_io_ib_mode_sel[1]
+ mprj_io_inp_dis[1] mprj_io_oeb[1] mprj_io_out[1] mprj_io_slow_sel[1] mprj_io_vtrip_sel[1]
+ mprj_io_in[1] mprj_io[2] mprj_io_analog_en[2] mprj_io_analog_pol[2] mprj_io_analog_sel[2]
+ mprj_io_dm[6] mprj_io_dm[7] mprj_io_dm[8] mprj_io_enh[2] mprj_io_hldh_n[2] mprj_io_holdover[2]
+ mprj_io_ib_mode_sel[2] mprj_io_inp_dis[2] mprj_io_oeb[2] mprj_io_out[2] mprj_io_slow_sel[2]
+ mprj_io_vtrip_sel[2] mprj_io_in[2] mprj_io[3] mprj_io_analog_en[3] mprj_io_analog_pol[3]
+ mprj_io_analog_sel[3] mprj_io_dm[10] mprj_io_dm[11] mprj_io_dm[9] mprj_io_enh[3]
+ mprj_io_hldh_n[3] mprj_io_holdover[3] mprj_io_ib_mode_sel[3] mprj_io_inp_dis[3]
+ mprj_io_oeb[3] mprj_io_out[3] mprj_io_slow_sel[3] mprj_io_vtrip_sel[3] mprj_io_in[3]
+ mprj_io[4] mprj_io_analog_en[4] mprj_io_analog_pol[4] mprj_io_analog_sel[4] mprj_io_dm[12]
+ mprj_io_dm[13] mprj_io_dm[14] mprj_io_enh[4] mprj_io_hldh_n[4] mprj_io_holdover[4]
+ mprj_io_ib_mode_sel[4] mprj_io_inp_dis[4] mprj_io_oeb[4] mprj_io_out[4] mprj_io_slow_sel[4]
+ mprj_io_vtrip_sel[4] mprj_io_in[4] mprj_io[5] mprj_io_analog_en[5] mprj_io_analog_pol[5]
+ mprj_io_analog_sel[5] mprj_io_dm[15] mprj_io_dm[16] mprj_io_dm[17] mprj_io_enh[5]
+ mprj_io_hldh_n[5] mprj_io_holdover[5] mprj_io_ib_mode_sel[5] mprj_io_inp_dis[5]
+ mprj_io_oeb[5] mprj_io_out[5] mprj_io_slow_sel[5] mprj_io_vtrip_sel[5] mprj_io_in[5]
+ mprj_io[6] mprj_io_analog_en[6] mprj_io_analog_pol[6] mprj_io_analog_sel[6] mprj_io_dm[18]
+ mprj_io_dm[19] mprj_io_dm[20] mprj_io_enh[6] mprj_io_hldh_n[6] mprj_io_holdover[6]
+ mprj_io_ib_mode_sel[6] mprj_io_inp_dis[6] mprj_io_oeb[6] mprj_io_out[6] mprj_io_slow_sel[6]
+ mprj_io_vtrip_sel[6] mprj_io_in[6] mprj_analog_io[0] mprj_io[7] mprj_io_analog_en[7]
+ mprj_io_analog_pol[7] mprj_io_analog_sel[7] mprj_io_dm[21] mprj_io_dm[22] mprj_io_dm[23]
+ mprj_io_enh[7] mprj_io_hldh_n[7] mprj_io_holdover[7] mprj_io_ib_mode_sel[7] mprj_io_inp_dis[7]
+ mprj_io_oeb[7] mprj_io_out[7] mprj_io_slow_sel[7] mprj_io_vtrip_sel[7] mprj_io_in[7]
+ mprj_analog_io[1] mprj_io[8] mprj_io_analog_en[8] mprj_io_analog_pol[8] mprj_io_analog_sel[8]
+ mprj_io_dm[24] mprj_io_dm[25] mprj_io_dm[26] mprj_io_enh[8] mprj_io_hldh_n[8] mprj_io_holdover[8]
+ mprj_io_ib_mode_sel[8] mprj_io_inp_dis[8] mprj_io_oeb[8] mprj_io_out[8] mprj_io_slow_sel[8]
+ mprj_io_vtrip_sel[8] mprj_io_in[8] mprj_analog_io[2] mprj_io[9] mprj_io_analog_en[9]
+ mprj_io_analog_pol[9] mprj_io_analog_sel[9] mprj_io_dm[27] mprj_io_dm[28] mprj_io_dm[29]
+ mprj_io_enh[9] mprj_io_hldh_n[9] mprj_io_holdover[9] mprj_io_ib_mode_sel[9] mprj_io_inp_dis[9]
+ mprj_io_oeb[9] mprj_io_out[9] mprj_io_slow_sel[9] mprj_io_vtrip_sel[9] mprj_io_in[9]
+ mprj_analog_io[11] mprj_io[18] mprj_io_analog_en[18] mprj_io_analog_pol[18] mprj_io_analog_sel[18]
+ mprj_io_dm[54] mprj_io_dm[55] mprj_io_dm[56] mprj_io_enh[18] mprj_io_hldh_n[18]
+ mprj_io_holdover[18] mprj_io_ib_mode_sel[18] mprj_io_inp_dis[18] mprj_io_oeb[18]
+ mprj_io_out[18] mprj_io_slow_sel[18] mprj_io_vtrip_sel[18] mprj_io_in[18] mprj_analog_io[21]
+ mprj_io[28] mprj_io_analog_en[28] mprj_io_analog_pol[28] mprj_io_analog_sel[28]
+ mprj_io_dm[84] mprj_io_dm[85] mprj_io_dm[86] mprj_io_enh[28] mprj_io_hldh_n[28]
+ mprj_io_holdover[28] mprj_io_ib_mode_sel[28] mprj_io_inp_dis[28] mprj_io_oeb[28]
+ mprj_io_out[28] mprj_io_slow_sel[28] mprj_io_vtrip_sel[28] mprj_io_in[28] mprj_analog_io[22]
+ mprj_io[29] mprj_io_analog_en[29] mprj_io_analog_pol[29] mprj_io_analog_sel[29]
+ mprj_io_dm[87] mprj_io_dm[88] mprj_io_dm[89] mprj_io_enh[29] mprj_io_hldh_n[29]
+ mprj_io_holdover[29] mprj_io_ib_mode_sel[29] mprj_io_inp_dis[29] mprj_io_oeb[29]
+ mprj_io_out[29] mprj_io_slow_sel[29] mprj_io_vtrip_sel[29] mprj_io_in[29] mprj_analog_io[23]
+ mprj_io[30] mprj_io_analog_en[30] mprj_io_analog_pol[30] mprj_io_analog_sel[30]
+ mprj_io_dm[90] mprj_io_dm[91] mprj_io_dm[92] mprj_io_enh[30] mprj_io_hldh_n[30]
+ mprj_io_holdover[30] mprj_io_ib_mode_sel[30] mprj_io_inp_dis[30] mprj_io_oeb[30]
+ mprj_io_out[30] mprj_io_slow_sel[30] mprj_io_vtrip_sel[30] mprj_io_in[30] mprj_analog_io[24]
+ mprj_io[31] mprj_io_analog_en[31] mprj_io_analog_pol[31] mprj_io_analog_sel[31]
+ mprj_io_dm[93] mprj_io_dm[94] mprj_io_dm[95] mprj_io_enh[31] mprj_io_hldh_n[31]
+ mprj_io_holdover[31] mprj_io_ib_mode_sel[31] mprj_io_inp_dis[31] mprj_io_oeb[31]
+ mprj_io_out[31] mprj_io_slow_sel[31] mprj_io_vtrip_sel[31] mprj_io_in[31] mprj_analog_io[25]
+ mprj_io[32] mprj_io_analog_en[32] mprj_io_analog_pol[32] mprj_io_analog_sel[32]
+ mprj_io_dm[96] mprj_io_dm[97] mprj_io_dm[98] mprj_io_enh[32] mprj_io_hldh_n[32]
+ mprj_io_holdover[32] mprj_io_ib_mode_sel[32] mprj_io_inp_dis[32] mprj_io_oeb[32]
+ mprj_io_out[32] mprj_io_slow_sel[32] mprj_io_vtrip_sel[32] mprj_io_in[32] mprj_analog_io[26]
+ mprj_io[33] mprj_io_analog_en[33] mprj_io_analog_pol[33] mprj_io_analog_sel[33]
+ mprj_io_dm[100] mprj_io_dm[101] mprj_io_dm[99] mprj_io_enh[33] mprj_io_hldh_n[33]
+ mprj_io_holdover[33] mprj_io_ib_mode_sel[33] mprj_io_inp_dis[33] mprj_io_oeb[33]
+ mprj_io_out[33] mprj_io_slow_sel[33] mprj_io_vtrip_sel[33] mprj_io_in[33] mprj_analog_io[27]
+ mprj_io[34] mprj_io_analog_en[34] mprj_io_analog_pol[34] mprj_io_analog_sel[34]
+ mprj_io_dm[102] mprj_io_dm[103] mprj_io_dm[104] mprj_io_enh[34] mprj_io_hldh_n[34]
+ mprj_io_holdover[34] mprj_io_ib_mode_sel[34] mprj_io_inp_dis[34] mprj_io_oeb[34]
+ mprj_io_out[34] mprj_io_slow_sel[34] mprj_io_vtrip_sel[34] mprj_io_in[34] mprj_analog_io[28]
+ mprj_io[35] mprj_io_analog_en[35] mprj_io_analog_pol[35] mprj_io_analog_sel[35]
+ mprj_io_dm[105] mprj_io_dm[106] mprj_io_dm[107] mprj_io_enh[35] mprj_io_hldh_n[35]
+ mprj_io_holdover[35] mprj_io_ib_mode_sel[35] mprj_io_inp_dis[35] mprj_io_oeb[35]
+ mprj_io_out[35] mprj_io_slow_sel[35] mprj_io_vtrip_sel[35] mprj_io_in[35] mprj_analog_io[29]
+ mprj_io[36] mprj_io_analog_en[36] mprj_io_analog_pol[36] mprj_io_analog_sel[36]
+ mprj_io_dm[108] mprj_io_dm[109] mprj_io_dm[110] mprj_io_enh[36] mprj_io_hldh_n[36]
+ mprj_io_holdover[36] mprj_io_ib_mode_sel[36] mprj_io_inp_dis[36] mprj_io_oeb[36]
+ mprj_io_out[36] mprj_io_slow_sel[36] mprj_io_vtrip_sel[36] mprj_io_in[36] mprj_analog_io[30]
+ mprj_io[37] mprj_io_analog_en[37] mprj_io_analog_pol[37] mprj_io_analog_sel[37]
+ mprj_io_dm[111] mprj_io_dm[112] mprj_io_dm[113] mprj_io_enh[37] mprj_io_hldh_n[37]
+ mprj_io_holdover[37] mprj_io_ib_mode_sel[37] mprj_io_inp_dis[37] mprj_io_oeb[37]
+ mprj_io_out[37] mprj_io_slow_sel[37] mprj_io_vtrip_sel[37] mprj_io_in[37] mprj_analog_io[12]
+ mprj_io[19] mprj_io_analog_en[19] mprj_io_analog_pol[19] mprj_io_analog_sel[19]
+ mprj_io_dm[57] mprj_io_dm[58] mprj_io_dm[59] mprj_io_enh[19] mprj_io_hldh_n[19]
+ mprj_io_holdover[19] mprj_io_ib_mode_sel[19] mprj_io_inp_dis[19] mprj_io_oeb[19]
+ mprj_io_out[19] mprj_io_slow_sel[19] mprj_io_vtrip_sel[19] mprj_io_in[19] mprj_analog_io[13]
+ mprj_io[20] mprj_io_analog_en[20] mprj_io_analog_pol[20] mprj_io_analog_sel[20]
+ mprj_io_dm[60] mprj_io_dm[61] mprj_io_dm[62] mprj_io_enh[20] mprj_io_hldh_n[20]
+ mprj_io_holdover[20] mprj_io_ib_mode_sel[20] mprj_io_inp_dis[20] mprj_io_oeb[20]
+ mprj_io_out[20] mprj_io_slow_sel[20] mprj_io_vtrip_sel[20] mprj_io_in[20] mprj_analog_io[14]
+ mprj_io[21] mprj_io_analog_en[21] mprj_io_analog_pol[21] mprj_io_analog_sel[21]
+ mprj_io_dm[63] mprj_io_dm[64] mprj_io_dm[65] mprj_io_enh[21] mprj_io_hldh_n[21]
+ mprj_io_holdover[21] mprj_io_ib_mode_sel[21] mprj_io_inp_dis[21] mprj_io_oeb[21]
+ mprj_io_out[21] mprj_io_slow_sel[21] mprj_io_vtrip_sel[21] mprj_io_in[21] mprj_analog_io[15]
+ mprj_io[22] mprj_io_analog_en[22] mprj_io_analog_pol[22] mprj_io_analog_sel[22]
+ mprj_io_dm[66] mprj_io_dm[67] mprj_io_dm[68] mprj_io_enh[22] mprj_io_hldh_n[22]
+ mprj_io_holdover[22] mprj_io_ib_mode_sel[22] mprj_io_inp_dis[22] mprj_io_oeb[22]
+ mprj_io_out[22] mprj_io_slow_sel[22] mprj_io_vtrip_sel[22] mprj_io_in[22] mprj_analog_io[16]
+ mprj_io[23] mprj_io_analog_en[23] mprj_io_analog_pol[23] mprj_io_analog_sel[23]
+ mprj_io_dm[69] mprj_io_dm[70] mprj_io_dm[71] mprj_io_enh[23] mprj_io_hldh_n[23]
+ mprj_io_holdover[23] mprj_io_ib_mode_sel[23] mprj_io_inp_dis[23] mprj_io_oeb[23]
+ mprj_io_out[23] mprj_io_slow_sel[23] mprj_io_vtrip_sel[23] mprj_io_in[23] mprj_analog_io[17]
+ mprj_io[24] mprj_io_analog_en[24] mprj_io_analog_pol[24] mprj_io_analog_sel[24]
+ mprj_io_dm[72] mprj_io_dm[73] mprj_io_dm[74] mprj_io_enh[24] mprj_io_hldh_n[24]
+ mprj_io_holdover[24] mprj_io_ib_mode_sel[24] mprj_io_inp_dis[24] mprj_io_oeb[24]
+ mprj_io_out[24] mprj_io_slow_sel[24] mprj_io_vtrip_sel[24] mprj_io_in[24] mprj_analog_io[18]
+ mprj_io[25] mprj_io_analog_en[25] mprj_io_analog_pol[25] mprj_io_analog_sel[25]
+ mprj_io_dm[75] mprj_io_dm[76] mprj_io_dm[77] mprj_io_enh[25] mprj_io_hldh_n[25]
+ mprj_io_holdover[25] mprj_io_ib_mode_sel[25] mprj_io_inp_dis[25] mprj_io_oeb[25]
+ mprj_io_out[25] mprj_io_slow_sel[25] mprj_io_vtrip_sel[25] mprj_io_in[25] mprj_analog_io[19]
+ mprj_io[26] mprj_io_analog_en[26] mprj_io_analog_pol[26] mprj_io_analog_sel[26]
+ mprj_io_dm[78] mprj_io_dm[79] mprj_io_dm[80] mprj_io_enh[26] mprj_io_hldh_n[26]
+ mprj_io_holdover[26] mprj_io_ib_mode_sel[26] mprj_io_inp_dis[26] mprj_io_oeb[26]
+ mprj_io_out[26] mprj_io_slow_sel[26] mprj_io_vtrip_sel[26] mprj_io_in[26] mprj_analog_io[20]
+ mprj_io[27] mprj_io_analog_en[27] mprj_io_analog_pol[27] mprj_io_analog_sel[27]
+ mprj_io_dm[81] mprj_io_dm[82] mprj_io_dm[83] mprj_io_enh[27] mprj_io_hldh_n[27]
+ mprj_io_holdover[27] mprj_io_ib_mode_sel[27] mprj_io_inp_dis[27] mprj_io_oeb[27]
+ mprj_io_out[27] mprj_io_slow_sel[27] mprj_io_vtrip_sel[27] mprj_io_in[27] resetb
+ porb_h resetb_core_h vccd vccd1 vccd1_pad vccd2 vccd2_pad vccd_pad vdda vdda1 vdda1_pad
+ vdda2 vdda2_pad vdda_pad vddio vddio_pad vssa vssa1 vssa1_pad vssa2 vssa2_pad vssa_pad
+ vssd vssd1 vssd1_pad vssd2 vssd2_pad vssd_pad vssio vssio_pad vssio_pad2 vddio_pad2
+ vssa1_pad2 vdda1_pad2
.ends

* Black-box entry subcircuit for mgmt_core abstract view
.subckt mgmt_core clock core_clk core_rstn flash_clk flash_clk_ieb flash_clk_oeb flash_csb
+ flash_csb_ieb flash_csb_oeb flash_io0_di flash_io0_do flash_io0_ieb flash_io0_oeb
+ flash_io1_di flash_io1_do flash_io1_ieb flash_io1_oeb gpio_in_pad gpio_inenb_pad
+ gpio_mode0_pad gpio_mode1_pad gpio_out_pad gpio_outenb_pad jtag_out jtag_outenb
+ la_input[0] la_input[100] la_input[101] la_input[102] la_input[103] la_input[104]
+ la_input[105] la_input[106] la_input[107] la_input[108] la_input[109] la_input[10]
+ la_input[110] la_input[111] la_input[112] la_input[113] la_input[114] la_input[115]
+ la_input[116] la_input[117] la_input[118] la_input[119] la_input[11] la_input[120]
+ la_input[121] la_input[122] la_input[123] la_input[124] la_input[125] la_input[126]
+ la_input[127] la_input[12] la_input[13] la_input[14] la_input[15] la_input[16] la_input[17]
+ la_input[18] la_input[19] la_input[1] la_input[20] la_input[21] la_input[22] la_input[23]
+ la_input[24] la_input[25] la_input[26] la_input[27] la_input[28] la_input[29] la_input[2]
+ la_input[30] la_input[31] la_input[32] la_input[33] la_input[34] la_input[35] la_input[36]
+ la_input[37] la_input[38] la_input[39] la_input[3] la_input[40] la_input[41] la_input[42]
+ la_input[43] la_input[44] la_input[45] la_input[46] la_input[47] la_input[48] la_input[49]
+ la_input[4] la_input[50] la_input[51] la_input[52] la_input[53] la_input[54] la_input[55]
+ la_input[56] la_input[57] la_input[58] la_input[59] la_input[5] la_input[60] la_input[61]
+ la_input[62] la_input[63] la_input[64] la_input[65] la_input[66] la_input[67] la_input[68]
+ la_input[69] la_input[6] la_input[70] la_input[71] la_input[72] la_input[73] la_input[74]
+ la_input[75] la_input[76] la_input[77] la_input[78] la_input[79] la_input[7] la_input[80]
+ la_input[81] la_input[82] la_input[83] la_input[84] la_input[85] la_input[86] la_input[87]
+ la_input[88] la_input[89] la_input[8] la_input[90] la_input[91] la_input[92] la_input[93]
+ la_input[94] la_input[95] la_input[96] la_input[97] la_input[98] la_input[99] la_input[9]
+ la_oen[0] la_oen[100] la_oen[101] la_oen[102] la_oen[103] la_oen[104] la_oen[105]
+ la_oen[106] la_oen[107] la_oen[108] la_oen[109] la_oen[10] la_oen[110] la_oen[111]
+ la_oen[112] la_oen[113] la_oen[114] la_oen[115] la_oen[116] la_oen[117] la_oen[118]
+ la_oen[119] la_oen[11] la_oen[120] la_oen[121] la_oen[122] la_oen[123] la_oen[124]
+ la_oen[125] la_oen[126] la_oen[127] la_oen[12] la_oen[13] la_oen[14] la_oen[15]
+ la_oen[16] la_oen[17] la_oen[18] la_oen[19] la_oen[1] la_oen[20] la_oen[21] la_oen[22]
+ la_oen[23] la_oen[24] la_oen[25] la_oen[26] la_oen[27] la_oen[28] la_oen[29] la_oen[2]
+ la_oen[30] la_oen[31] la_oen[32] la_oen[33] la_oen[34] la_oen[35] la_oen[36] la_oen[37]
+ la_oen[38] la_oen[39] la_oen[3] la_oen[40] la_oen[41] la_oen[42] la_oen[43] la_oen[44]
+ la_oen[45] la_oen[46] la_oen[47] la_oen[48] la_oen[49] la_oen[4] la_oen[50] la_oen[51]
+ la_oen[52] la_oen[53] la_oen[54] la_oen[55] la_oen[56] la_oen[57] la_oen[58] la_oen[59]
+ la_oen[5] la_oen[60] la_oen[61] la_oen[62] la_oen[63] la_oen[64] la_oen[65] la_oen[66]
+ la_oen[67] la_oen[68] la_oen[69] la_oen[6] la_oen[70] la_oen[71] la_oen[72] la_oen[73]
+ la_oen[74] la_oen[75] la_oen[76] la_oen[77] la_oen[78] la_oen[79] la_oen[7] la_oen[80]
+ la_oen[81] la_oen[82] la_oen[83] la_oen[84] la_oen[85] la_oen[86] la_oen[87] la_oen[88]
+ la_oen[89] la_oen[8] la_oen[90] la_oen[91] la_oen[92] la_oen[93] la_oen[94] la_oen[95]
+ la_oen[96] la_oen[97] la_oen[98] la_oen[99] la_oen[9] la_output[0] la_output[100]
+ la_output[101] la_output[102] la_output[103] la_output[104] la_output[105] la_output[106]
+ la_output[107] la_output[108] la_output[109] la_output[10] la_output[110] la_output[111]
+ la_output[112] la_output[113] la_output[114] la_output[115] la_output[116] la_output[117]
+ la_output[118] la_output[119] la_output[11] la_output[120] la_output[121] la_output[122]
+ la_output[123] la_output[124] la_output[125] la_output[126] la_output[127] la_output[12]
+ la_output[13] la_output[14] la_output[15] la_output[16] la_output[17] la_output[18]
+ la_output[19] la_output[1] la_output[20] la_output[21] la_output[22] la_output[23]
+ la_output[24] la_output[25] la_output[26] la_output[27] la_output[28] la_output[29]
+ la_output[2] la_output[30] la_output[31] la_output[32] la_output[33] la_output[34]
+ la_output[35] la_output[36] la_output[37] la_output[38] la_output[39] la_output[3]
+ la_output[40] la_output[41] la_output[42] la_output[43] la_output[44] la_output[45]
+ la_output[46] la_output[47] la_output[48] la_output[49] la_output[4] la_output[50]
+ la_output[51] la_output[52] la_output[53] la_output[54] la_output[55] la_output[56]
+ la_output[57] la_output[58] la_output[59] la_output[5] la_output[60] la_output[61]
+ la_output[62] la_output[63] la_output[64] la_output[65] la_output[66] la_output[67]
+ la_output[68] la_output[69] la_output[6] la_output[70] la_output[71] la_output[72]
+ la_output[73] la_output[74] la_output[75] la_output[76] la_output[77] la_output[78]
+ la_output[79] la_output[7] la_output[80] la_output[81] la_output[82] la_output[83]
+ la_output[84] la_output[85] la_output[86] la_output[87] la_output[88] la_output[89]
+ la_output[8] la_output[90] la_output[91] la_output[92] la_output[93] la_output[94]
+ la_output[95] la_output[96] la_output[97] la_output[98] la_output[99] la_output[9]
+ mask_rev[0] mask_rev[10] mask_rev[11] mask_rev[12] mask_rev[13] mask_rev[14] mask_rev[15]
+ mask_rev[16] mask_rev[17] mask_rev[18] mask_rev[19] mask_rev[1] mask_rev[20] mask_rev[21]
+ mask_rev[22] mask_rev[23] mask_rev[24] mask_rev[25] mask_rev[26] mask_rev[27] mask_rev[28]
+ mask_rev[29] mask_rev[2] mask_rev[30] mask_rev[31] mask_rev[3] mask_rev[4] mask_rev[5]
+ mask_rev[6] mask_rev[7] mask_rev[8] mask_rev[9] mgmt_addr[0] mgmt_addr[1] mgmt_addr[2]
+ mgmt_addr[3] mgmt_addr[4] mgmt_addr[5] mgmt_addr[6] mgmt_addr[7] mgmt_addr_ro[0]
+ mgmt_addr_ro[1] mgmt_addr_ro[2] mgmt_addr_ro[3] mgmt_addr_ro[4] mgmt_addr_ro[5]
+ mgmt_addr_ro[6] mgmt_addr_ro[7] mgmt_ena[0] mgmt_ena[1] mgmt_ena_ro mgmt_in_data[0]
+ mgmt_in_data[10] mgmt_in_data[11] mgmt_in_data[12] mgmt_in_data[13] mgmt_in_data[14]
+ mgmt_in_data[15] mgmt_in_data[16] mgmt_in_data[17] mgmt_in_data[18] mgmt_in_data[19]
+ mgmt_in_data[1] mgmt_in_data[20] mgmt_in_data[21] mgmt_in_data[22] mgmt_in_data[23]
+ mgmt_in_data[24] mgmt_in_data[25] mgmt_in_data[26] mgmt_in_data[27] mgmt_in_data[28]
+ mgmt_in_data[29] mgmt_in_data[2] mgmt_in_data[30] mgmt_in_data[31] mgmt_in_data[32]
+ mgmt_in_data[33] mgmt_in_data[34] mgmt_in_data[35] mgmt_in_data[36] mgmt_in_data[37]
+ mgmt_in_data[3] mgmt_in_data[4] mgmt_in_data[5] mgmt_in_data[6] mgmt_in_data[7]
+ mgmt_in_data[8] mgmt_in_data[9] mgmt_out_data[0] mgmt_out_data[10] mgmt_out_data[11]
+ mgmt_out_data[12] mgmt_out_data[13] mgmt_out_data[14] mgmt_out_data[15] mgmt_out_data[16]
+ mgmt_out_data[17] mgmt_out_data[18] mgmt_out_data[19] mgmt_out_data[1] mgmt_out_data[20]
+ mgmt_out_data[21] mgmt_out_data[22] mgmt_out_data[23] mgmt_out_data[24] mgmt_out_data[25]
+ mgmt_out_data[26] mgmt_out_data[27] mgmt_out_data[28] mgmt_out_data[29] mgmt_out_data[2]
+ mgmt_out_data[30] mgmt_out_data[31] mgmt_out_data[32] mgmt_out_data[33] mgmt_out_data[34]
+ mgmt_out_data[35] mgmt_out_data[36] mgmt_out_data[37] mgmt_out_data[3] mgmt_out_data[4]
+ mgmt_out_data[5] mgmt_out_data[6] mgmt_out_data[7] mgmt_out_data[8] mgmt_out_data[9]
+ mgmt_rdata[0] mgmt_rdata[10] mgmt_rdata[11] mgmt_rdata[12] mgmt_rdata[13] mgmt_rdata[14]
+ mgmt_rdata[15] mgmt_rdata[16] mgmt_rdata[17] mgmt_rdata[18] mgmt_rdata[19] mgmt_rdata[1]
+ mgmt_rdata[20] mgmt_rdata[21] mgmt_rdata[22] mgmt_rdata[23] mgmt_rdata[24] mgmt_rdata[25]
+ mgmt_rdata[26] mgmt_rdata[27] mgmt_rdata[28] mgmt_rdata[29] mgmt_rdata[2] mgmt_rdata[30]
+ mgmt_rdata[31] mgmt_rdata[32] mgmt_rdata[33] mgmt_rdata[34] mgmt_rdata[35] mgmt_rdata[36]
+ mgmt_rdata[37] mgmt_rdata[38] mgmt_rdata[39] mgmt_rdata[3] mgmt_rdata[40] mgmt_rdata[41]
+ mgmt_rdata[42] mgmt_rdata[43] mgmt_rdata[44] mgmt_rdata[45] mgmt_rdata[46] mgmt_rdata[47]
+ mgmt_rdata[48] mgmt_rdata[49] mgmt_rdata[4] mgmt_rdata[50] mgmt_rdata[51] mgmt_rdata[52]
+ mgmt_rdata[53] mgmt_rdata[54] mgmt_rdata[55] mgmt_rdata[56] mgmt_rdata[57] mgmt_rdata[58]
+ mgmt_rdata[59] mgmt_rdata[5] mgmt_rdata[60] mgmt_rdata[61] mgmt_rdata[62] mgmt_rdata[63]
+ mgmt_rdata[6] mgmt_rdata[7] mgmt_rdata[8] mgmt_rdata[9] mgmt_rdata_ro[0] mgmt_rdata_ro[10]
+ mgmt_rdata_ro[11] mgmt_rdata_ro[12] mgmt_rdata_ro[13] mgmt_rdata_ro[14] mgmt_rdata_ro[15]
+ mgmt_rdata_ro[16] mgmt_rdata_ro[17] mgmt_rdata_ro[18] mgmt_rdata_ro[19] mgmt_rdata_ro[1]
+ mgmt_rdata_ro[20] mgmt_rdata_ro[21] mgmt_rdata_ro[22] mgmt_rdata_ro[23] mgmt_rdata_ro[24]
+ mgmt_rdata_ro[25] mgmt_rdata_ro[26] mgmt_rdata_ro[27] mgmt_rdata_ro[28] mgmt_rdata_ro[29]
+ mgmt_rdata_ro[2] mgmt_rdata_ro[30] mgmt_rdata_ro[31] mgmt_rdata_ro[3] mgmt_rdata_ro[4]
+ mgmt_rdata_ro[5] mgmt_rdata_ro[6] mgmt_rdata_ro[7] mgmt_rdata_ro[8] mgmt_rdata_ro[9]
+ mgmt_wdata[0] mgmt_wdata[10] mgmt_wdata[11] mgmt_wdata[12] mgmt_wdata[13] mgmt_wdata[14]
+ mgmt_wdata[15] mgmt_wdata[16] mgmt_wdata[17] mgmt_wdata[18] mgmt_wdata[19] mgmt_wdata[1]
+ mgmt_wdata[20] mgmt_wdata[21] mgmt_wdata[22] mgmt_wdata[23] mgmt_wdata[24] mgmt_wdata[25]
+ mgmt_wdata[26] mgmt_wdata[27] mgmt_wdata[28] mgmt_wdata[29] mgmt_wdata[2] mgmt_wdata[30]
+ mgmt_wdata[31] mgmt_wdata[3] mgmt_wdata[4] mgmt_wdata[5] mgmt_wdata[6] mgmt_wdata[7]
+ mgmt_wdata[8] mgmt_wdata[9] mgmt_wen[0] mgmt_wen[1] mgmt_wen_mask[0] mgmt_wen_mask[1]
+ mgmt_wen_mask[2] mgmt_wen_mask[3] mgmt_wen_mask[4] mgmt_wen_mask[5] mgmt_wen_mask[6]
+ mgmt_wen_mask[7] mprj2_vcc_pwrgood mprj2_vdd_pwrgood mprj_ack_i mprj_adr_o[0] mprj_adr_o[10]
+ mprj_adr_o[11] mprj_adr_o[12] mprj_adr_o[13] mprj_adr_o[14] mprj_adr_o[15] mprj_adr_o[16]
+ mprj_adr_o[17] mprj_adr_o[18] mprj_adr_o[19] mprj_adr_o[1] mprj_adr_o[20] mprj_adr_o[21]
+ mprj_adr_o[22] mprj_adr_o[23] mprj_adr_o[24] mprj_adr_o[25] mprj_adr_o[26] mprj_adr_o[27]
+ mprj_adr_o[28] mprj_adr_o[29] mprj_adr_o[2] mprj_adr_o[30] mprj_adr_o[31] mprj_adr_o[3]
+ mprj_adr_o[4] mprj_adr_o[5] mprj_adr_o[6] mprj_adr_o[7] mprj_adr_o[8] mprj_adr_o[9]
+ mprj_cyc_o mprj_dat_i[0] mprj_dat_i[10] mprj_dat_i[11] mprj_dat_i[12] mprj_dat_i[13]
+ mprj_dat_i[14] mprj_dat_i[15] mprj_dat_i[16] mprj_dat_i[17] mprj_dat_i[18] mprj_dat_i[19]
+ mprj_dat_i[1] mprj_dat_i[20] mprj_dat_i[21] mprj_dat_i[22] mprj_dat_i[23] mprj_dat_i[24]
+ mprj_dat_i[25] mprj_dat_i[26] mprj_dat_i[27] mprj_dat_i[28] mprj_dat_i[29] mprj_dat_i[2]
+ mprj_dat_i[30] mprj_dat_i[31] mprj_dat_i[3] mprj_dat_i[4] mprj_dat_i[5] mprj_dat_i[6]
+ mprj_dat_i[7] mprj_dat_i[8] mprj_dat_i[9] mprj_dat_o[0] mprj_dat_o[10] mprj_dat_o[11]
+ mprj_dat_o[12] mprj_dat_o[13] mprj_dat_o[14] mprj_dat_o[15] mprj_dat_o[16] mprj_dat_o[17]
+ mprj_dat_o[18] mprj_dat_o[19] mprj_dat_o[1] mprj_dat_o[20] mprj_dat_o[21] mprj_dat_o[22]
+ mprj_dat_o[23] mprj_dat_o[24] mprj_dat_o[25] mprj_dat_o[26] mprj_dat_o[27] mprj_dat_o[28]
+ mprj_dat_o[29] mprj_dat_o[2] mprj_dat_o[30] mprj_dat_o[31] mprj_dat_o[3] mprj_dat_o[4]
+ mprj_dat_o[5] mprj_dat_o[6] mprj_dat_o[7] mprj_dat_o[8] mprj_dat_o[9] mprj_io_loader_clock
+ mprj_io_loader_data mprj_io_loader_resetn mprj_sel_o[0] mprj_sel_o[1] mprj_sel_o[2]
+ mprj_sel_o[3] mprj_stb_o mprj_vcc_pwrgood mprj_vdd_pwrgood mprj_we_o porb pwr_ctrl_out[0]
+ pwr_ctrl_out[1] pwr_ctrl_out[2] pwr_ctrl_out[3] resetb sdo_out sdo_outenb user_clk
+ VPWR VGND
.ends

* Black-box entry subcircuit for simple_por abstract view
.subckt simple_por vdd3v3 vdd1v8 vss porb_h por_l porb_l
.ends

* Black-box entry subcircuit for user_id_programming abstract view
.subckt user_id_programming mask_rev[0] mask_rev[10] mask_rev[11] mask_rev[12] mask_rev[13]
+ mask_rev[14] mask_rev[15] mask_rev[16] mask_rev[17] mask_rev[18] mask_rev[19] mask_rev[1]
+ mask_rev[20] mask_rev[21] mask_rev[22] mask_rev[23] mask_rev[24] mask_rev[25] mask_rev[26]
+ mask_rev[27] mask_rev[28] mask_rev[29] mask_rev[2] mask_rev[30] mask_rev[31] mask_rev[3]
+ mask_rev[4] mask_rev[5] mask_rev[6] mask_rev[7] mask_rev[8] mask_rev[9] VPWR VGND
.ends

* Black-box entry subcircuit for sky130_fd_sc_hd__decap_12 abstract view
.subckt sky130_fd_sc_hd__decap_12 VGND VNB VPB VPWR
.ends

* Black-box entry subcircuit for sky130_fd_sc_hd__decap_4 abstract view
.subckt sky130_fd_sc_hd__decap_4 VGND VNB VPB VPWR
.ends

* Black-box entry subcircuit for sky130_fd_sc_hd__fill_2 abstract view
.subckt sky130_fd_sc_hd__fill_2 VGND VNB VPB VPWR
.ends

* Black-box entry subcircuit for sky130_fd_sc_hd__diode_2 abstract view
.subckt sky130_fd_sc_hd__diode_2 DIODE VGND VNB VPB VPWR
.ends

* Black-box entry subcircuit for sky130_fd_sc_hd__fill_1 abstract view
.subckt sky130_fd_sc_hd__fill_1 VGND VNB VPB VPWR
.ends

* Black-box entry subcircuit for sky130_fd_sc_hd__decap_3 abstract view
.subckt sky130_fd_sc_hd__decap_3 VGND VNB VPB VPWR
.ends

* Black-box entry subcircuit for sky130_fd_sc_hd__inv_2 abstract view
.subckt sky130_fd_sc_hd__inv_2 A VGND VNB VPB VPWR Y
.ends

* Black-box entry subcircuit for sky130_fd_sc_hd__decap_6 abstract view
.subckt sky130_fd_sc_hd__decap_6 VGND VNB VPB VPWR
.ends

* Black-box entry subcircuit for sky130_fd_sc_hd__einvp_8 abstract view
.subckt sky130_fd_sc_hd__einvp_8 A TE VGND VNB VPB VPWR Z
.ends

* Black-box entry subcircuit for sky130_fd_sc_hd__decap_8 abstract view
.subckt sky130_fd_sc_hd__decap_8 VGND VNB VPB VPWR
.ends

* Black-box entry subcircuit for sky130_fd_sc_hd__nand2_4 abstract view
.subckt sky130_fd_sc_hd__nand2_4 A B VGND VNB VPB VPWR Y
.ends

* Black-box entry subcircuit for sky130_fd_sc_hd__tapvpwrvgnd_1 abstract view
.subckt sky130_fd_sc_hd__tapvpwrvgnd_1 VGND VPWR
.ends

* Black-box entry subcircuit for sky130_fd_sc_hd__inv_8 abstract view
.subckt sky130_fd_sc_hd__inv_8 A VGND VNB VPB VPWR Y
.ends

* Black-box entry subcircuit for sky130_fd_sc_hd__buf_8 abstract view
.subckt sky130_fd_sc_hd__buf_8 A VGND VNB VPB VPWR X
.ends

* Black-box entry subcircuit for mprj2_logic_high abstract view
.subckt mprj2_logic_high HI vccd2 vssd2
.ends

* Black-box entry subcircuit for mprj_logic_high abstract view
.subckt mprj_logic_high HI[0] HI[100] HI[101] HI[102] HI[103] HI[104] HI[105] HI[106]
+ HI[107] HI[108] HI[109] HI[10] HI[110] HI[111] HI[112] HI[113] HI[114] HI[115] HI[116]
+ HI[117] HI[118] HI[119] HI[11] HI[120] HI[121] HI[122] HI[123] HI[124] HI[125] HI[126]
+ HI[127] HI[128] HI[129] HI[12] HI[130] HI[131] HI[132] HI[133] HI[134] HI[135] HI[136]
+ HI[137] HI[138] HI[139] HI[13] HI[140] HI[141] HI[142] HI[143] HI[144] HI[145] HI[146]
+ HI[147] HI[148] HI[149] HI[14] HI[150] HI[151] HI[152] HI[153] HI[154] HI[155] HI[156]
+ HI[157] HI[158] HI[159] HI[15] HI[160] HI[161] HI[162] HI[163] HI[164] HI[165] HI[166]
+ HI[167] HI[168] HI[169] HI[16] HI[170] HI[171] HI[172] HI[173] HI[174] HI[175] HI[176]
+ HI[177] HI[178] HI[179] HI[17] HI[180] HI[181] HI[182] HI[183] HI[184] HI[185] HI[186]
+ HI[187] HI[188] HI[189] HI[18] HI[190] HI[191] HI[192] HI[193] HI[194] HI[195] HI[196]
+ HI[197] HI[198] HI[199] HI[19] HI[1] HI[200] HI[201] HI[202] HI[203] HI[204] HI[205]
+ HI[206] HI[207] HI[208] HI[209] HI[20] HI[210] HI[211] HI[212] HI[213] HI[214] HI[215]
+ HI[216] HI[217] HI[218] HI[219] HI[21] HI[220] HI[221] HI[222] HI[223] HI[224] HI[225]
+ HI[226] HI[227] HI[228] HI[229] HI[22] HI[230] HI[231] HI[232] HI[233] HI[234] HI[235]
+ HI[236] HI[237] HI[238] HI[239] HI[23] HI[240] HI[241] HI[242] HI[243] HI[244] HI[245]
+ HI[246] HI[247] HI[248] HI[249] HI[24] HI[250] HI[251] HI[252] HI[253] HI[254] HI[255]
+ HI[256] HI[257] HI[258] HI[259] HI[25] HI[260] HI[261] HI[262] HI[263] HI[264] HI[265]
+ HI[266] HI[267] HI[268] HI[269] HI[26] HI[270] HI[271] HI[272] HI[273] HI[274] HI[275]
+ HI[276] HI[277] HI[278] HI[279] HI[27] HI[280] HI[281] HI[282] HI[283] HI[284] HI[285]
+ HI[286] HI[287] HI[288] HI[289] HI[28] HI[290] HI[291] HI[292] HI[293] HI[294] HI[295]