* NGSPICE file created from chip_io_alt.ext - technology: sky130A

* Black-box entry subcircuit for sky130_ef_io__com_bus_slice_20um abstract view
.subckt sky130_ef_io__com_bus_slice_20um AMUXBUS_A AMUXBUS_B VSSA VDDA VSWITCH VDDIO_Q
+ VCCHIB VDDIO VCCD VSSIO VSSD VSSIO_Q
.ends

* Black-box entry subcircuit for sky130_ef_io__gpiov2_pad_wrapped abstract view
.subckt sky130_ef_io__gpiov2_pad_wrapped IN_H PAD_A_NOESD_H PAD_A_ESD_0_H PAD_A_ESD_1_H
+ PAD DM[2] DM[1] DM[0] HLD_H_N IN INP_DIS IB_MODE_SEL ENABLE_H ENABLE_VDDA_H ENABLE_INP_H
+ OE_N TIE_HI_ESD TIE_LO_ESD SLOW VTRIP_SEL HLD_OVR ANALOG_EN ANALOG_SEL ENABLE_VDDIO
+ ENABLE_VSWITCH_H ANALOG_POL OUT AMUXBUS_A AMUXBUS_B VSSA VDDA VSWITCH VDDIO_Q VCCHIB
+ VDDIO VCCD VSSIO VSSD VSSIO_Q
.ends

* Black-box entry subcircuit for sky130_ef_io__com_bus_slice_5um abstract view
.subckt sky130_ef_io__com_bus_slice_5um AMUXBUS_A AMUXBUS_B VSSA VDDA VSWITCH VDDIO_Q
+ VCCHIB VDDIO VCCD VSSIO VSSD VSSIO_Q
.ends

* Black-box entry subcircuit for sky130_ef_io__com_bus_slice_1um abstract view
.subckt sky130_ef_io__com_bus_slice_1um AMUXBUS_A AMUXBUS_B VSSA VDDA VSWITCH VDDIO_Q
+ VCCHIB VDDIO VCCD VSSIO VSSD VSSIO_Q
.ends

* Black-box entry subcircuit for sky130_ef_io__vccd_lvc_clamped_pad abstract view
.subckt sky130_ef_io__vccd_lvc_clamped_pad AMUXBUS_A AMUXBUS_B VCCD_PAD VSSA VDDA
+ VSWITCH VDDIO_Q VCCHIB VDDIO VCCD VSSIO VSSD VSSIO_Q
.ends

* Black-box entry subcircuit for sky130_ef_io__analog_pad abstract view
.subckt sky130_ef_io__analog_pad P_CORE VSSA VSSD AMUXBUS_B AMUXBUS_A VDDIO_Q VDDIO
+ VSWITCH VSSIO VDDA VCCD VCCHIB VSSIO_Q P_PAD
.ends

* Black-box entry subcircuit for sky130_ef_io__com_bus_slice_10um abstract view
.subckt sky130_ef_io__com_bus_slice_10um AMUXBUS_A AMUXBUS_B VSSA VDDA VSWITCH VDDIO_Q
+ VCCHIB VDDIO VCCD VSSIO VSSD VSSIO_Q
.ends

* Black-box entry subcircuit for sky130_ef_io__disconnect_vdda_slice_5um abstract view
.subckt sky130_ef_io__disconnect_vdda_slice_5um AMUXBUS_A AMUXBUS_B VSWITCH VDDIO_Q
+ VCCHIB VDDIO VCCD VSSIO VSSD VSSIO_Q
.ends

* Black-box entry subcircuit for sky130_ef_io__corner_pad abstract view
.subckt sky130_ef_io__corner_pad AMUXBUS_A AMUXBUS_B VSSA VDDA VSWITCH VDDIO_Q VCCHIB
+ VDDIO VCCD VSSIO VSSD VSSIO_Q
.ends

* Black-box entry subcircuit for sky130_ef_io__vddio_hvc_clamped_pad abstract view
.subckt sky130_ef_io__vddio_hvc_clamped_pad AMUXBUS_A AMUXBUS_B VDDIO_PAD VSSA VDDA
+ VSWITCH VDDIO_Q VCCHIB VDDIO VCCD VSSIO VSSD VSSIO_Q
.ends

* Black-box entry subcircuit for sky130_ef_io__vssio_hvc_clamped_pad abstract view
.subckt sky130_ef_io__vssio_hvc_clamped_pad AMUXBUS_A AMUXBUS_B VSSIO_PAD VSSA VDDA
+ VSWITCH VDDIO_Q VCCHIB VDDIO VCCD VSSIO VSSD VSSIO_Q
.ends

* Black-box entry subcircuit for sky130_ef_io__connect_vcchib_vccd_and_vswitch_vddio_slice_20um abstract view
.subckt sky130_ef_io__connect_vcchib_vccd_and_vswitch_vddio_slice_20um AMUXBUS_A AMUXBUS_B
+ VSSA VDDA VDDIO_Q VSSIO VSSD VSSIO_Q VSWITCH VCCHIB
.ends

* Black-box entry subcircuit for sky130_ef_io__vdda_hvc_clamped_pad abstract view
.subckt sky130_ef_io__vdda_hvc_clamped_pad AMUXBUS_A AMUXBUS_B VDDA_PAD VSSA VDDA
+ VSWITCH VDDIO_Q VCCHIB VDDIO VCCD VSSIO VSSD VSSIO_Q
.ends

* Black-box entry subcircuit for sky130_ef_io__top_power_hvc abstract view
.subckt sky130_ef_io__top_power_hvc AMUXBUS_A AMUXBUS_B DRN_HVC P_CORE P_PAD SRC_BDY_HVC
+ VSSA VDDA VSWITCH VDDIO_Q VCCHIB VDDIO VCCD VSSIO VSSD VSSIO_Q
.ends

* Black-box entry subcircuit for sky130_ef_io__vccd_lvc_clamped2_pad abstract view
.subckt sky130_ef_io__vccd_lvc_clamped2_pad AMUXBUS_A AMUXBUS_B VCCD_PAD VSSA VDDA
+ VSWITCH VDDIO_Q VCCHIB VDDIO VCCD VSSIO VSSD VSSIO_Q
.ends

* Black-box entry subcircuit for sky130_ef_io__vssa_hvc_clamped_pad abstract view
.subckt sky130_ef_io__vssa_hvc_clamped_pad AMUXBUS_A AMUXBUS_B VSSA_PAD VSSA VDDA
+ VSWITCH VDDIO_Q VCCHIB VDDIO VCCD VSSIO VSSD VSSIO_Q
.ends

* Black-box entry subcircuit for sky130_ef_io__disconnect_vccd_slice_5um abstract view
.subckt sky130_ef_io__disconnect_vccd_slice_5um AMUXBUS_A AMUXBUS_B VSSA VDDA VSWITCH
+ VDDIO_Q VCCHIB VDDIO VSSIO VSSIO_Q
.ends

* Black-box entry subcircuit for sky130_fd_io__top_xres4v2 abstract view
.subckt sky130_fd_io__top_xres4v2 PAD_A_ESD_H XRES_H_N FILT_IN_H ENABLE_VDDIO TIE_WEAK_HI_H
+ ENABLE_H PULLUP_H EN_VDDIO_SIG_H TIE_LO_ESD TIE_HI_ESD DISABLE_PULLUP_H INP_SEL_H
+ VSSIO VSSA VSSD AMUXBUS_B AMUXBUS_A VDDIO_Q VDDIO VSWITCH VDDA VCCD VCCHIB VSSIO_Q
+ PAD
.ends

* Black-box entry subcircuit for sky130_ef_io__vssd_lvc_clamped2_pad abstract view
.subckt sky130_ef_io__vssd_lvc_clamped2_pad AMUXBUS_A AMUXBUS_B VSSD_PAD VSSA VDDA
+ VSWITCH VDDIO_Q VCCHIB VDDIO VCCD VSSIO VSSD VSSIO_Q
.ends

* Black-box entry subcircuit for sky130_ef_io__vssd_lvc_clamped_pad abstract view
.subckt sky130_ef_io__vssd_lvc_clamped_pad AMUXBUS_A AMUXBUS_B VSSD_PAD VSSA VDDA
+ VSWITCH VDDIO_Q VCCHIB VDDIO VCCD VSSIO VSSD VSSIO_Q
.ends

.subckt chip_io_alt clock clock_core por flash_clk flash_clk_core flash_clk_ieb_core
+ flash_clk_oeb_core flash_csb flash_csb_core flash_csb_ieb_core flash_csb_oeb_core
+ flash_io0 flash_io0_di_core flash_io0_do_core flash_io0_ieb_core flash_io0_oeb_core
+ flash_io1 flash_io1_di_core flash_io1_do_core flash_io1_ieb_core flash_io1_oeb_core
+ gpio gpio_in_core gpio_inenb_core gpio_mode0_core gpio_mode1_core gpio_out_core
+ gpio_outenb_core vccd_pad vdda_pad vddio_pad vddio_pad2 vssa_pad vssd_pad vssio_pad
+ vssio_pad2 mprj_io[0] mprj_io_analog_en[0] mprj_io_analog_pol[0] mprj_io_analog_sel[0]
+ mprj_io_dm[0] mprj_io_dm[1] mprj_io_dm[2] mprj_io_holdover[0] mprj_io_ib_mode_sel[0]
+ mprj_io_inp_dis[0] mprj_io_oeb[0] mprj_io_out[0] mprj_io_slow_sel[0] mprj_io_vtrip_sel[0]
+ mprj_io_in[0] mprj_io_in_3v3[0] mprj_gpio_analog[3] mprj_gpio_noesd[3] mprj_io[10]
+ mprj_io_analog_en[10] mprj_io_analog_pol[10] mprj_io_analog_sel[10] mprj_io_dm[30]
+ mprj_io_dm[31] mprj_io_dm[32] mprj_io_holdover[10] mprj_io_ib_mode_sel[10] mprj_io_inp_dis[10]
+ mprj_io_oeb[10] mprj_io_out[10] mprj_io_slow_sel[10] mprj_io_vtrip_sel[10] mprj_io_in[10]
+ mprj_io_in_3v3[10] mprj_gpio_analog[4] mprj_gpio_noesd[4] mprj_io[11] mprj_io_analog_en[11]
+ mprj_io_analog_pol[11] mprj_io_analog_sel[11] mprj_io_dm[33] mprj_io_dm[34] mprj_io_dm[35]
+ mprj_io_holdover[11] mprj_io_ib_mode_sel[11] mprj_io_inp_dis[11] mprj_io_oeb[11]
+ mprj_io_out[11] mprj_io_slow_sel[11] mprj_io_vtrip_sel[11] mprj_io_in[11] mprj_io_in_3v3[11]
+ mprj_gpio_analog[5] mprj_gpio_noesd[5] mprj_io[12] mprj_io_analog_en[12] mprj_io_analog_pol[12]
+ mprj_io_analog_sel[12] mprj_io_dm[36] mprj_io_dm[37] mprj_io_dm[38] mprj_io_holdover[12]
+ mprj_io_ib_mode_sel[12] mprj_io_inp_dis[12] mprj_io_oeb[12] mprj_io_out[12] mprj_io_slow_sel[12]
+ mprj_io_vtrip_sel[12] mprj_io_in[12] mprj_io_in_3v3[12] mprj_gpio_analog[6] mprj_gpio_noesd[6]
+ mprj_io[13] mprj_io_analog_en[13] mprj_io_analog_pol[13] mprj_io_analog_sel[13]
+ mprj_io_dm[39] mprj_io_dm[40] mprj_io_dm[41] mprj_io_holdover[13] mprj_io_ib_mode_sel[13]
+ mprj_io_inp_dis[13] mprj_io_oeb[13] mprj_io_out[13] mprj_io_slow_sel[13] mprj_io_vtrip_sel[13]
+ mprj_io_in[13] mprj_io_in_3v3[13] mprj_io[1] mprj_io_analog_en[1] mprj_io_analog_pol[1]
+ mprj_io_analog_sel[1] mprj_io_dm[3] mprj_io_dm[4] mprj_io_dm[5] mprj_io_holdover[1]
+ mprj_io_ib_mode_sel[1] mprj_io_inp_dis[1] mprj_io_oeb[1] mprj_io_out[1] mprj_io_slow_sel[1]
+ mprj_io_vtrip_sel[1] mprj_io_in[1] mprj_io_in_3v3[1] mprj_io[2] mprj_io_analog_en[2]
+ mprj_io_analog_pol[2] mprj_io_analog_sel[2] mprj_io_dm[6] mprj_io_dm[7] mprj_io_dm[8]
+ mprj_io_holdover[2] mprj_io_ib_mode_sel[2] mprj_io_inp_dis[2] mprj_io_oeb[2] mprj_io_out[2]
+ mprj_io_slow_sel[2] mprj_io_vtrip_sel[2] mprj_io_in[2] mprj_io_in_3v3[2] mprj_io[3]
+ mprj_io_analog_en[3] mprj_io_analog_pol[3] mprj_io_analog_sel[3] mprj_io_dm[10]
+ mprj_io_dm[11] mprj_io_dm[9] mprj_io_holdover[3] mprj_io_ib_mode_sel[3] mprj_io_inp_dis[3]
+ mprj_io_oeb[3] mprj_io_out[3] mprj_io_slow_sel[3] mprj_io_vtrip_sel[3] mprj_io_in[3]
+ mprj_io_in_3v3[3] mprj_io[4] mprj_io_analog_en[4] mprj_io_analog_pol[4] mprj_io_analog_sel[4]
+ mprj_io_dm[12] mprj_io_dm[13] mprj_io_dm[14] mprj_io_holdover[4] mprj_io_ib_mode_sel[4]
+ mprj_io_inp_dis[4] mprj_io_oeb[4] mprj_io_out[4] mprj_io_slow_sel[4] mprj_io_vtrip_sel[4]
+ mprj_io_in[4] mprj_io_in_3v3[4] mprj_io[5] mprj_io_analog_en[5] mprj_io_analog_pol[5]
+ mprj_io_analog_sel[5] mprj_io_dm[15] mprj_io_dm[16] mprj_io_dm[17] mprj_io_holdover[5]
+ mprj_io_ib_mode_sel[5] mprj_io_inp_dis[5] mprj_io_oeb[5] mprj_io_out[5] mprj_io_slow_sel[5]
+ mprj_io_vtrip_sel[5] mprj_io_in[5] mprj_io_in_3v3[5] mprj_io[6] mprj_io_analog_en[6]
+ mprj_io_analog_pol[6] mprj_io_analog_sel[6] mprj_io_dm[18] mprj_io_dm[19] mprj_io_dm[20]
+ mprj_io_holdover[6] mprj_io_ib_mode_sel[6] mprj_io_inp_dis[6] mprj_io_oeb[6] mprj_io_out[6]
+ mprj_io_slow_sel[6] mprj_io_vtrip_sel[6] mprj_io_in[6] mprj_io_in_3v3[6] mprj_gpio_analog[0]
+ mprj_gpio_noesd[0] mprj_io[7] mprj_io_analog_en[7] mprj_io_analog_pol[7] mprj_io_analog_sel[7]
+ mprj_io_dm[21] mprj_io_dm[22] mprj_io_dm[23] mprj_io_holdover[7] mprj_io_ib_mode_sel[7]
+ mprj_io_inp_dis[7] mprj_io_oeb[7] mprj_io_out[7] mprj_io_slow_sel[7] mprj_io_vtrip_sel[7]
+ mprj_io_in[7] mprj_io_in_3v3[7] mprj_gpio_analog[1] mprj_gpio_noesd[1] mprj_io[8]
+ mprj_io_analog_en[8] mprj_io_analog_pol[8] mprj_io_analog_sel[8] mprj_io_dm[24]
+ mprj_io_dm[25] mprj_io_dm[26] mprj_io_holdover[8] mprj_io_ib_mode_sel[8] mprj_io_inp_dis[8]
+ mprj_io_oeb[8] mprj_io_out[8] mprj_io_slow_sel[8] mprj_io_vtrip_sel[8] mprj_io_in[8]
+ mprj_io_in_3v3[8] mprj_gpio_analog[2] mprj_gpio_noesd[2] mprj_io[9] mprj_io_analog_en[9]
+ mprj_io_analog_pol[9] mprj_io_analog_sel[9] mprj_io_dm[27] mprj_io_dm[28] mprj_io_dm[29]
+ mprj_io_holdover[9] mprj_io_ib_mode_sel[9] mprj_io_inp_dis[9] mprj_io_oeb[9] mprj_io_out[9]
+ mprj_io_slow_sel[9] mprj_io_vtrip_sel[9] mprj_io_in[9] mprj_io_in_3v3[9] mprj_gpio_analog[7]
+ mprj_gpio_noesd[7] mprj_io[25] mprj_io_analog_en[14] mprj_io_analog_pol[14] mprj_io_analog_sel[14]
+ mprj_io_dm[42] mprj_io_dm[43] mprj_io_dm[44] mprj_io_holdover[14] mprj_io_ib_mode_sel[14]
+ mprj_io_inp_dis[14] mprj_io_oeb[14] mprj_io_out[14] mprj_io_slow_sel[14] mprj_io_vtrip_sel[14]
+ mprj_io_in[14] mprj_io_in_3v3[14] mprj_gpio_analog[17] mprj_gpio_noesd[17] mprj_io[35]
+ mprj_io_analog_en[24] mprj_io_analog_pol[24] mprj_io_analog_sel[24] mprj_io_dm[72]
+ mprj_io_dm[73] mprj_io_dm[74] mprj_io_holdover[24] mprj_io_ib_mode_sel[24] mprj_io_inp_dis[24]
+ mprj_io_oeb[24] mprj_io_out[24] mprj_io_slow_sel[24] mprj_io_vtrip_sel[24] mprj_io_in[24]
+ mprj_io_in_3v3[24] mprj_io[36] mprj_io_analog_en[25] mprj_io_analog_pol[25] mprj_io_analog_sel[25]
+ mprj_io_dm[75] mprj_io_dm[76] mprj_io_dm[77] mprj_io_holdover[25] mprj_io_ib_mode_sel[25]
+ mprj_io_inp_dis[25] mprj_io_oeb[25] mprj_io_out[25] mprj_io_slow_sel[25] mprj_io_vtrip_sel[25]
+ mprj_io_in[25] mprj_io_in_3v3[25] mprj_io[37] mprj_io_analog_en[26] mprj_io_analog_pol[26]
+ mprj_io_analog_sel[26] mprj_io_dm[78] mprj_io_dm[79] mprj_io_dm[80] mprj_io_holdover[26]
+ mprj_io_ib_mode_sel[26] mprj_io_inp_dis[26] mprj_io_oeb[26] mprj_io_out[26] mprj_io_slow_sel[26]
+ mprj_io_vtrip_sel[26] mprj_io_in[26] mprj_io_in_3v3[26] mprj_gpio_analog[8] mprj_gpio_noesd[8]
+ mprj_io[26] mprj_io_analog_en[15] mprj_io_analog_pol[15] mprj_io_analog_sel[15]
+ mprj_io_dm[45] mprj_io_dm[46] mprj_io_dm[47] mprj_io_holdover[15] mprj_io_ib_mode_sel[15]
+ mprj_io_inp_dis[15] mprj_io_oeb[15] mprj_io_out[15] mprj_io_slow_sel[15] mprj_io_vtrip_sel[15]
+ mprj_io_in[15] mprj_io_in_3v3[15] mprj_gpio_analog[9] mprj_gpio_noesd[9] mprj_io[27]
+ mprj_io_analog_en[16] mprj_io_analog_pol[16] mprj_io_analog_sel[16] mprj_io_dm[48]
+ mprj_io_dm[49] mprj_io_dm[50] mprj_io_holdover[16] mprj_io_ib_mode_sel[16] mprj_io_inp_dis[16]
+ mprj_io_oeb[16] mprj_io_out[16] mprj_io_slow_sel[16] mprj_io_vtrip_sel[16] mprj_io_in[16]
+ mprj_io_in_3v3[16] mprj_gpio_analog[10] mprj_gpio_noesd[10] mprj_io[28] mprj_io_analog_en[17]
+ mprj_io_analog_pol[17] mprj_io_analog_sel[17] mprj_io_dm[51] mprj_io_dm[52] mprj_io_dm[53]
+ mprj_io_holdover[17] mprj_io_ib_mode_sel[17] mprj_io_inp_dis[17] mprj_io_oeb[17]
+ mprj_io_out[17] mprj_io_slow_sel[17] mprj_io_vtrip_sel[17] mprj_io_in[17] mprj_io_in_3v3[17]
+ mprj_gpio_analog[11] mprj_gpio_noesd[11] mprj_io[29] mprj_io_analog_en[18] mprj_io_analog_pol[18]
+ mprj_io_analog_sel[18] mprj_io_dm[54] mprj_io_dm[55] mprj_io_dm[56] mprj_io_holdover[18]
+ mprj_io_ib_mode_sel[18] mprj_io_inp_dis[18] mprj_io_oeb[18] mprj_io_out[18] mprj_io_slow_sel[18]
+ mprj_io_vtrip_sel[18] mprj_io_in[18] mprj_io_in_3v3[18] mprj_gpio_analog[12] mprj_gpio_noesd[12]
+ mprj_io[30] mprj_io_analog_en[19] mprj_io_analog_pol[19] mprj_io_analog_sel[19]
+ mprj_io_dm[57] mprj_io_dm[58] mprj_io_dm[59] mprj_io_holdover[19] mprj_io_ib_mode_sel[19]
+ mprj_io_inp_dis[19] mprj_io_oeb[19] mprj_io_out[19] mprj_io_slow_sel[19] mprj_io_vtrip_sel[19]
+ mprj_io_in[19] mprj_io_in_3v3[19] mprj_gpio_analog[13] mprj_gpio_noesd[13] mprj_io[31]
+ mprj_io_analog_en[20] mprj_io_analog_pol[20] mprj_io_analog_sel[20] mprj_io_dm[60]
+ mprj_io_dm[61] mprj_io_dm[62] mprj_io_holdover[20] mprj_io_ib_mode_sel[20] mprj_io_inp_dis[20]
+ mprj_io_oeb[20] mprj_io_out[20] mprj_io_slow_sel[20] mprj_io_vtrip_sel[20] mprj_io_in[20]
+ mprj_io_in_3v3[20] mprj_gpio_analog[14] mprj_gpio_noesd[14] mprj_io[32] mprj_io_analog_en[21]
+ mprj_io_analog_pol[21] mprj_io_analog_sel[21] mprj_io_dm[63] mprj_io_dm[64] mprj_io_dm[65]
+ mprj_io_holdover[21] mprj_io_ib_mode_sel[21] mprj_io_inp_dis[21] mprj_io_oeb[21]
+ mprj_io_out[21] mprj_io_slow_sel[21] mprj_io_vtrip_sel[21] mprj_io_in[21] mprj_io_in_3v3[21]
+ mprj_gpio_analog[15] mprj_gpio_noesd[15] mprj_io[33] mprj_io_analog_en[22] mprj_io_analog_pol[22]
+ mprj_io_analog_sel[22] mprj_io_dm[66] mprj_io_dm[67] mprj_io_dm[68] mprj_io_holdover[22]
+ mprj_io_ib_mode_sel[22] mprj_io_inp_dis[22] mprj_io_oeb[22] mprj_io_out[22] mprj_io_slow_sel[22]
+ mprj_io_vtrip_sel[22] mprj_io_in[22] mprj_io_in_3v3[22] mprj_gpio_analog[16] mprj_gpio_noesd[16]
+ mprj_io[34] mprj_io_analog_en[23] mprj_io_analog_pol[23] mprj_io_analog_sel[23]
+ mprj_io_dm[69] mprj_io_dm[70] mprj_io_dm[71] mprj_io_holdover[23] mprj_io_ib_mode_sel[23]
+ mprj_io_inp_dis[23] mprj_io_oeb[23] mprj_io_out[23] mprj_io_slow_sel[23] mprj_io_vtrip_sel[23]
+ mprj_io_in[23] mprj_io_in_3v3[23] porb_h resetb resetb_core_h vdda vssa vssd mprj_analog[1]
+ mprj_io[15] mprj_analog[2] mprj_io[16] mprj_analog[3] mprj_io[17] mprj_analog[4]
+ mprj_io[18] mprj_analog[0] mprj_clamp_high[0] mprj_clamp_low[0] mprj_io[14] vccd1_pad
+ vdda1_pad vdda1_pad2 vssa1_pad vssa1_pad2 vccd1 vdda1 vssa1 vssd1 vssd1_pad mprj_analog[7]
+ mprj_io[21] mprj_analog[8] mprj_io[22] mprj_analog[9] mprj_io[23] mprj_analog[10]
+ mprj_io[24] mprj_analog[5] mprj_clamp_high[1] mprj_clamp_low[1] mprj_io[19] mprj_analog[6]
+ mprj_clamp_high[2] mprj_clamp_low[2] mprj_io[20] vccd2_pad vdda2_pad vssa2_pad vccd
+ vccd2 vdda2 vddio vssa2 vssd2 vssd2_pad vssio
XFILLER_581 gpio_pad/AMUXBUS_A gpio_pad/AMUXBUS_B vssa2 vdda2 vddio gpio_pad/VDDIO_Q
+ vccd vddio vccd2 vssio vssd2 gpio_pad/VSSIO_Q sky130_ef_io__com_bus_slice_20um
XFILLER_570 gpio_pad/AMUXBUS_A gpio_pad/AMUXBUS_B vssa2 vdda2 vddio gpio_pad/VDDIO_Q
+ vccd vddio vccd2 vssio vssd2 gpio_pad/VSSIO_Q sky130_ef_io__com_bus_slice_20um
Xclock_pad clock_pad/IN_H clock_pad/PAD_A_NOESD_H clock_pad/PAD_A_ESD_0_H clock_pad/PAD_A_ESD_1_H
+ clock vssd vssd vccd vddio clock_core por vssd porb_h porb_h clock_pad/TIE_LO_ESD
+ vccd clock_pad/TIE_HI_ESD clock_pad/TIE_LO_ESD vssd vssd vssd vssd vssd vccd vssa
+ vssd vssd gpio_pad/AMUXBUS_A gpio_pad/AMUXBUS_B vssa vdda vddio gpio_pad/VDDIO_Q
+ vccd vddio vccd vssio vssd gpio_pad/VSSIO_Q sky130_ef_io__gpiov2_pad_wrapped
XFILLER_592 gpio_pad/AMUXBUS_A gpio_pad/AMUXBUS_B vssa vdda vddio gpio_pad/VDDIO_Q
+ vccd vddio vccd vssio vssd gpio_pad/VSSIO_Q sky130_ef_io__com_bus_slice_5um
XFILLER_25 gpio_pad/AMUXBUS_A gpio_pad/AMUXBUS_B vssa2 vdda2 vddio gpio_pad/VDDIO_Q
+ vccd vddio vccd2 vssio vssd2 gpio_pad/VSSIO_Q sky130_ef_io__com_bus_slice_20um
XFILLER_14 gpio_pad/AMUXBUS_A gpio_pad/AMUXBUS_B vssa2 vdda2 vddio gpio_pad/VDDIO_Q
+ vccd vddio vccd2 vssio vssd2 gpio_pad/VSSIO_Q sky130_ef_io__com_bus_slice_5um
XFILLER_58 gpio_pad/AMUXBUS_A gpio_pad/AMUXBUS_B vssa2 vdda2 vddio gpio_pad/VDDIO_Q
+ vccd vddio vccd2 vssio vssd2 gpio_pad/VSSIO_Q sky130_ef_io__com_bus_slice_1um
XFILLER_47 gpio_pad/AMUXBUS_A gpio_pad/AMUXBUS_B vssa2 vdda2 vddio gpio_pad/VDDIO_Q
+ vccd vddio vccd2 vssio vssd2 gpio_pad/VSSIO_Q sky130_ef_io__com_bus_slice_20um
XFILLER_36 gpio_pad/AMUXBUS_A gpio_pad/AMUXBUS_B vssa2 vdda2 vddio gpio_pad/VDDIO_Q
+ vccd vddio vccd2 vssio vssd2 gpio_pad/VSSIO_Q sky130_ef_io__com_bus_slice_20um
Xmgmt_vccd_lvclamp_pad gpio_pad/AMUXBUS_A gpio_pad/AMUXBUS_B vccd_pad vssa vdda vddio
+ gpio_pad/VDDIO_Q vccd vddio vccd vssio vssd gpio_pad/VSSIO_Q sky130_ef_io__vccd_lvc_clamped_pad
Xmprj_pads.area2_io_pad\[7\] mprj_io_in_3v3[21] mprj_gpio_noesd[14] mprj_gpio_analog[14]
+ mprj_pads.area2_io_pad\[7\]/PAD_A_ESD_1_H mprj_io[32] mprj_io_dm[65] mprj_io_dm[64]
+ mprj_io_dm[63] vddio mprj_io_in[21] mprj_io_inp_dis[21] mprj_io_ib_mode_sel[21]
+ porb_h porb_h mprj_pads.area2_io_pad\[7\]/TIE_LO_ESD mprj_io_oeb[21] mprj_pads.area2_io_pad\[7\]/TIE_HI_ESD
+ mprj_pads.area2_io_pad\[7\]/TIE_LO_ESD mprj_io_slow_sel[21] mprj_io_vtrip_sel[21]
+ mprj_io_holdover[21] mprj_io_analog_en[21] mprj_io_analog_sel[21] vccd vssio mprj_io_analog_pol[21]
+ mprj_io_out[21] gpio_pad/AMUXBUS_A gpio_pad/AMUXBUS_B vssa2 vdda2 vddio gpio_pad/VDDIO_Q
+ vccd vddio vccd2 vssio vssd2 gpio_pad/VSSIO_Q sky130_ef_io__gpiov2_pad_wrapped
XFILLER_218 gpio_pad/AMUXBUS_A gpio_pad/AMUXBUS_B vssa vdda vddio gpio_pad/VDDIO_Q
+ vccd vddio vccd vssio vssd gpio_pad/VSSIO_Q sky130_ef_io__com_bus_slice_1um
XFILLER_207 gpio_pad/AMUXBUS_A gpio_pad/AMUXBUS_B vssa vdda vddio gpio_pad/VDDIO_Q
+ vccd vddio vccd vssio vssd gpio_pad/VSSIO_Q sky130_ef_io__com_bus_slice_1um
XFILLER_785 gpio_pad/AMUXBUS_A gpio_pad/AMUXBUS_B vssa1 vdda1 vddio gpio_pad/VDDIO_Q
+ vccd vddio vccd1 vssio vssd1 gpio_pad/VSSIO_Q sky130_ef_io__com_bus_slice_20um
XFILLER_774 gpio_pad/AMUXBUS_A gpio_pad/AMUXBUS_B vssa1 vdda1 vddio gpio_pad/VDDIO_Q
+ vccd vddio vccd1 vssio vssd1 gpio_pad/VSSIO_Q sky130_ef_io__com_bus_slice_20um
XFILLER_752 gpio_pad/AMUXBUS_A gpio_pad/AMUXBUS_B vssa1 vdda1 vddio gpio_pad/VDDIO_Q
+ vccd vddio vccd1 vssio vssd1 gpio_pad/VSSIO_Q sky130_ef_io__com_bus_slice_5um
XFILLER_741 gpio_pad/AMUXBUS_A gpio_pad/AMUXBUS_B vssa1 vdda1 vddio gpio_pad/VDDIO_Q
+ vccd vddio vccd1 vssio vssd1 gpio_pad/VSSIO_Q sky130_ef_io__com_bus_slice_20um
XFILLER_730 gpio_pad/AMUXBUS_A gpio_pad/AMUXBUS_B vssa1 vdda1 vddio gpio_pad/VDDIO_Q
+ vccd vddio vccd1 vssio vssd1 gpio_pad/VSSIO_Q sky130_ef_io__com_bus_slice_20um
Xuser2_analog_pad\[2\] mprj_analog[9] vssa2 vssd2 gpio_pad/AMUXBUS_B gpio_pad/AMUXBUS_A
+ gpio_pad/VDDIO_Q vddio vddio vssio vdda2 vccd2 vccd gpio_pad/VSSIO_Q mprj_io[23]
+ sky130_ef_io__analog_pad
XFILLER_582 gpio_pad/AMUXBUS_A gpio_pad/AMUXBUS_B vssa2 vdda2 vddio gpio_pad/VDDIO_Q
+ vccd vddio vccd2 vssio vssd2 gpio_pad/VSSIO_Q sky130_ef_io__com_bus_slice_20um
XFILLER_571 gpio_pad/AMUXBUS_A gpio_pad/AMUXBUS_B vssa2 vdda2 vddio gpio_pad/VDDIO_Q
+ vccd vddio vccd2 vssio vssd2 gpio_pad/VSSIO_Q sky130_ef_io__com_bus_slice_20um
XFILLER_560 gpio_pad/AMUXBUS_A gpio_pad/AMUXBUS_B vssa2 vdda2 vddio gpio_pad/VDDIO_Q
+ vccd vddio vccd2 vssio vssd2 gpio_pad/VSSIO_Q sky130_ef_io__com_bus_slice_20um
XFILLER_390 gpio_pad/AMUXBUS_A gpio_pad/AMUXBUS_B vssa2 vdda2 vddio gpio_pad/VDDIO_Q
+ vccd vddio vccd2 vssio vssd2 gpio_pad/VSSIO_Q sky130_ef_io__com_bus_slice_20um
Xmprj_pads.area1_io_pad\[7\] mprj_io_in_3v3[7] mprj_gpio_noesd[0] mprj_gpio_analog[0]
+ mprj_pads.area1_io_pad\[7\]/PAD_A_ESD_1_H mprj_io[7] mprj_io_dm[23] mprj_io_dm[22]
+ mprj_io_dm[21] vddio mprj_io_in[7] mprj_io_inp_dis[7] mprj_io_ib_mode_sel[7] porb_h
+ porb_h mprj_pads.area1_io_pad\[7\]/TIE_LO_ESD mprj_io_oeb[7] mprj_pads.area1_io_pad\[7\]/TIE_HI_ESD
+ mprj_pads.area1_io_pad\[7\]/TIE_LO_ESD mprj_io_slow_sel[7] mprj_io_vtrip_sel[7]
+ mprj_io_holdover[7] mprj_io_analog_en[7] mprj_io_analog_sel[7] vccd vssio mprj_io_analog_pol[7]
+ mprj_io_out[7] gpio_pad/AMUXBUS_A gpio_pad/AMUXBUS_B vssa1 vdda1 vddio gpio_pad/VDDIO_Q
+ vccd vddio vccd1 vssio vssd1 gpio_pad/VSSIO_Q sky130_ef_io__gpiov2_pad_wrapped
XFILLER_59 gpio_pad/AMUXBUS_A gpio_pad/AMUXBUS_B vssa2 vdda2 vddio gpio_pad/VDDIO_Q
+ vccd vddio vccd2 vssio vssd2 gpio_pad/VSSIO_Q sky130_ef_io__com_bus_slice_1um
XFILLER_48 gpio_pad/AMUXBUS_A gpio_pad/AMUXBUS_B vssa2 vdda2 vddio gpio_pad/VDDIO_Q
+ vccd vddio vccd2 vssio vssd2 gpio_pad/VSSIO_Q sky130_ef_io__com_bus_slice_10um
XFILLER_37 gpio_pad/AMUXBUS_A gpio_pad/AMUXBUS_B vssa2 vdda2 vddio gpio_pad/VDDIO_Q
+ vccd vddio vccd2 vssio vssd2 gpio_pad/VSSIO_Q sky130_ef_io__com_bus_slice_20um
XFILLER_26 gpio_pad/AMUXBUS_A gpio_pad/AMUXBUS_B vssa2 vdda2 vddio gpio_pad/VDDIO_Q
+ vccd vddio vccd2 vssio vssd2 gpio_pad/VSSIO_Q sky130_ef_io__com_bus_slice_20um
XFILLER_15 gpio_pad/AMUXBUS_A gpio_pad/AMUXBUS_B vssa2 vdda2 vddio gpio_pad/VDDIO_Q
+ vccd vddio vccd2 vssio vssd2 gpio_pad/VSSIO_Q sky130_ef_io__com_bus_slice_1um
XFILLER_219 gpio_pad/AMUXBUS_A gpio_pad/AMUXBUS_B vssa vdda vddio gpio_pad/VDDIO_Q
+ vccd vddio vccd vssio vssd gpio_pad/VSSIO_Q sky130_ef_io__com_bus_slice_1um
XFILLER_208 gpio_pad/AMUXBUS_A gpio_pad/AMUXBUS_B vssa vdda vddio gpio_pad/VDDIO_Q
+ vccd vddio vccd vssio vssd gpio_pad/VSSIO_Q sky130_ef_io__com_bus_slice_1um
XFILLER_786 gpio_pad/AMUXBUS_A gpio_pad/AMUXBUS_B vssa1 vdda1 vddio gpio_pad/VDDIO_Q
+ vccd vddio vccd1 vssio vssd1 gpio_pad/VSSIO_Q sky130_ef_io__com_bus_slice_20um
XFILLER_775 gpio_pad/AMUXBUS_A gpio_pad/AMUXBUS_B vssa1 vdda1 vddio gpio_pad/VDDIO_Q
+ vccd vddio vccd1 vssio vssd1 gpio_pad/VSSIO_Q sky130_ef_io__com_bus_slice_20um
XFILLER_764 gpio_pad/AMUXBUS_A gpio_pad/AMUXBUS_B vssa1 vdda1 vddio gpio_pad/VDDIO_Q
+ vccd vddio vccd1 vssio vssd1 gpio_pad/VSSIO_Q sky130_ef_io__com_bus_slice_20um
XFILLER_753 gpio_pad/AMUXBUS_A gpio_pad/AMUXBUS_B vssa1 vdda1 vddio gpio_pad/VDDIO_Q
+ vccd vddio vccd1 vssio vssd1 gpio_pad/VSSIO_Q sky130_ef_io__com_bus_slice_1um
XFILLER_742 gpio_pad/AMUXBUS_A gpio_pad/AMUXBUS_B vssa1 vdda1 vddio gpio_pad/VDDIO_Q
+ vccd vddio vccd1 vssio vssd1 gpio_pad/VSSIO_Q sky130_ef_io__com_bus_slice_20um
XFILLER_731 gpio_pad/AMUXBUS_A gpio_pad/AMUXBUS_B vssa1 vdda1 vddio gpio_pad/VDDIO_Q
+ vccd vddio vccd1 vssio vssd1 gpio_pad/VSSIO_Q sky130_ef_io__com_bus_slice_20um
XFILLER_720 gpio_pad/AMUXBUS_A gpio_pad/AMUXBUS_B vssa1 vdda1 vddio gpio_pad/VDDIO_Q
+ vccd vddio vccd1 vssio vssd1 gpio_pad/VSSIO_Q sky130_ef_io__com_bus_slice_20um
XFILLER_583 gpio_pad/AMUXBUS_A gpio_pad/AMUXBUS_B vssa2 vdda2 vddio gpio_pad/VDDIO_Q
+ vccd vddio vccd2 vssio vssd2 gpio_pad/VSSIO_Q sky130_ef_io__com_bus_slice_1um
XFILLER_572 gpio_pad/AMUXBUS_A gpio_pad/AMUXBUS_B vssa2 vdda2 vddio gpio_pad/VDDIO_Q
+ vccd vddio vccd2 vssio vssd2 gpio_pad/VSSIO_Q sky130_ef_io__com_bus_slice_10um
XFILLER_561 gpio_pad/AMUXBUS_A gpio_pad/AMUXBUS_B vssa2 vdda2 vddio gpio_pad/VDDIO_Q
+ vccd vddio vccd2 vssio vssd2 gpio_pad/VSSIO_Q sky130_ef_io__com_bus_slice_20um
XFILLER_550 gpio_pad/AMUXBUS_A gpio_pad/AMUXBUS_B vssa2 vdda2 vddio gpio_pad/VDDIO_Q
+ vccd vddio vccd2 vssio vssd2 gpio_pad/VSSIO_Q sky130_ef_io__com_bus_slice_20um
XFILLER_380 gpio_pad/AMUXBUS_A gpio_pad/AMUXBUS_B vssa2 vdda2 vddio gpio_pad/VDDIO_Q
+ vccd vddio vccd2 vssio vssd2 gpio_pad/VSSIO_Q sky130_ef_io__com_bus_slice_20um
XFILLER_391 gpio_pad/AMUXBUS_A gpio_pad/AMUXBUS_B vssa2 vdda2 vddio gpio_pad/VDDIO_Q
+ vccd vddio vccd2 vssio vssd2 gpio_pad/VSSIO_Q sky130_ef_io__com_bus_slice_20um
Xmprj_pads.area1_io_pad\[11\] mprj_io_in_3v3[11] mprj_gpio_noesd[4] mprj_gpio_analog[4]
+ mprj_pads.area1_io_pad\[11\]/PAD_A_ESD_1_H mprj_io[11] mprj_io_dm[35] mprj_io_dm[34]
+ mprj_io_dm[33] vddio mprj_io_in[11] mprj_io_inp_dis[11] mprj_io_ib_mode_sel[11]
+ porb_h porb_h mprj_pads.area1_io_pad\[11\]/TIE_LO_ESD mprj_io_oeb[11] mprj_pads.area1_io_pad\[11\]/TIE_HI_ESD
+ mprj_pads.area1_io_pad\[11\]/TIE_LO_ESD mprj_io_slow_sel[11] mprj_io_vtrip_sel[11]
+ mprj_io_holdover[11] mprj_io_analog_en[11] mprj_io_analog_sel[11] vccd vssio mprj_io_analog_pol[11]
+ mprj_io_out[11] gpio_pad/AMUXBUS_A gpio_pad/AMUXBUS_B vssa1 vdda1 vddio gpio_pad/VDDIO_Q
+ vccd vddio vccd1 vssio vssd1 gpio_pad/VSSIO_Q sky130_ef_io__gpiov2_pad_wrapped
XFILLER_49 gpio_pad/AMUXBUS_A gpio_pad/AMUXBUS_B vssa2 vdda2 vddio gpio_pad/VDDIO_Q
+ vccd vddio vccd2 vssio vssd2 gpio_pad/VSSIO_Q sky130_ef_io__com_bus_slice_5um
XFILLER_38 gpio_pad/AMUXBUS_A gpio_pad/AMUXBUS_B vssa2 vdda2 vddio gpio_pad/VDDIO_Q
+ vccd vddio vccd2 vssio vssd2 gpio_pad/VSSIO_Q sky130_ef_io__com_bus_slice_20um
XFILLER_27 gpio_pad/AMUXBUS_A gpio_pad/AMUXBUS_B vssa2 vdda2 vddio gpio_pad/VDDIO_Q
+ vccd vddio vccd2 vssio vssd2 gpio_pad/VSSIO_Q sky130_ef_io__com_bus_slice_1um
XFILLER_16 gpio_pad/AMUXBUS_A gpio_pad/AMUXBUS_B vssa2 vdda2 vddio gpio_pad/VDDIO_Q
+ vccd vddio vccd2 vssio vssd2 gpio_pad/VSSIO_Q sky130_ef_io__com_bus_slice_1um
XFILLER_787 gpio_pad/AMUXBUS_A gpio_pad/AMUXBUS_B vssa1 vdda1 vddio gpio_pad/VDDIO_Q
+ vccd vddio vccd1 vssio vssd1 gpio_pad/VSSIO_Q sky130_ef_io__com_bus_slice_10um
XFILLER_776 gpio_pad/AMUXBUS_A gpio_pad/AMUXBUS_B vssa1 vdda1 vddio gpio_pad/VDDIO_Q
+ vccd vddio vccd1 vssio vssd1 gpio_pad/VSSIO_Q sky130_ef_io__com_bus_slice_20um
XFILLER_765 gpio_pad/AMUXBUS_A gpio_pad/AMUXBUS_B vssa1 vdda1 vddio gpio_pad/VDDIO_Q
+ vccd vddio vccd1 vssio vssd1 gpio_pad/VSSIO_Q sky130_ef_io__com_bus_slice_20um
XFILLER_743 gpio_pad/AMUXBUS_A gpio_pad/AMUXBUS_B vssa1 vdda1 vddio gpio_pad/VDDIO_Q
+ vccd vddio vccd1 vssio vssd1 gpio_pad/VSSIO_Q sky130_ef_io__com_bus_slice_5um
XFILLER_732 gpio_pad/AMUXBUS_A gpio_pad/AMUXBUS_B vssa1 vdda1 vddio gpio_pad/VDDIO_Q
+ vccd vddio vccd1 vssio vssd1 gpio_pad/VSSIO_Q sky130_ef_io__com_bus_slice_20um
XFILLER_721 gpio_pad/AMUXBUS_A gpio_pad/AMUXBUS_B vssa1 vdda1 vddio gpio_pad/VDDIO_Q
+ vccd vddio vccd1 vssio vssd1 gpio_pad/VSSIO_Q sky130_ef_io__com_bus_slice_20um
XFILLER_710 gpio_pad/AMUXBUS_A gpio_pad/AMUXBUS_B vssa1 vdda1 vddio gpio_pad/VDDIO_Q
+ vccd vddio vccd1 vssio vssd1 gpio_pad/VSSIO_Q sky130_ef_io__com_bus_slice_20um
XFILLER_584 gpio_pad/AMUXBUS_A gpio_pad/AMUXBUS_B vssa2 vdda2 vddio gpio_pad/VDDIO_Q
+ vccd vddio vccd2 vssio vssd2 gpio_pad/VSSIO_Q sky130_ef_io__com_bus_slice_1um
XFILLER_573 gpio_pad/AMUXBUS_A gpio_pad/AMUXBUS_B vssa2 vdda2 vddio gpio_pad/VDDIO_Q
+ vccd vddio vccd2 vssio vssd2 gpio_pad/VSSIO_Q sky130_ef_io__com_bus_slice_5um
XFILLER_562 gpio_pad/AMUXBUS_A gpio_pad/AMUXBUS_B vssa2 vdda2 vddio gpio_pad/VDDIO_Q
+ vccd vddio vccd2 vssio vssd2 gpio_pad/VSSIO_Q sky130_ef_io__com_bus_slice_10um
XFILLER_551 gpio_pad/AMUXBUS_A gpio_pad/AMUXBUS_B vssa2 vdda2 vddio gpio_pad/VDDIO_Q
+ vccd vddio vccd2 vssio vssd2 gpio_pad/VSSIO_Q sky130_ef_io__com_bus_slice_20um
XFILLER_540 gpio_pad/AMUXBUS_A gpio_pad/AMUXBUS_B vssa2 vdda2 vddio gpio_pad/VDDIO_Q
+ vccd vddio vccd2 vssio vssd2 gpio_pad/VSSIO_Q sky130_ef_io__com_bus_slice_20um
XFILLER_595 gpio_pad/AMUXBUS_A gpio_pad/AMUXBUS_B vssa1 vdda1 vddio gpio_pad/VDDIO_Q
+ vccd vddio vccd1 vssio vssd1 gpio_pad/VSSIO_Q sky130_ef_io__com_bus_slice_20um
XFILLER_370 gpio_pad/AMUXBUS_A gpio_pad/AMUXBUS_B vssa vdda vddio gpio_pad/VDDIO_Q
+ vccd vddio vccd vssio vssd gpio_pad/VSSIO_Q sky130_ef_io__com_bus_slice_20um
XFILLER_381 gpio_pad/AMUXBUS_A gpio_pad/AMUXBUS_B vssa2 vdda2 vddio gpio_pad/VDDIO_Q
+ vccd vddio vccd2 vssio vssd2 gpio_pad/VSSIO_Q sky130_ef_io__com_bus_slice_20um
XFILLER_392 gpio_pad/AMUXBUS_A gpio_pad/AMUXBUS_B vssa2 vdda2 vddio gpio_pad/VDDIO_Q
+ vccd vddio vccd2 vssio vssd2 gpio_pad/VSSIO_Q sky130_ef_io__com_bus_slice_10um
XFILLER_39 gpio_pad/AMUXBUS_A gpio_pad/AMUXBUS_B vssa2 vdda2 vddio gpio_pad/VDDIO_Q
+ vccd vddio vccd2 vssio vssd2 gpio_pad/VSSIO_Q sky130_ef_io__com_bus_slice_1um
XFILLER_28 gpio_pad/AMUXBUS_A gpio_pad/AMUXBUS_B vssa2 vdda2 vddio gpio_pad/VDDIO_Q
+ vccd vddio vccd2 vssio vssd2 gpio_pad/VSSIO_Q sky130_ef_io__com_bus_slice_1um
Xmprj_pads.area2_io_pad\[5\] mprj_io_in_3v3[19] mprj_gpio_noesd[12] mprj_gpio_analog[12]
+ mprj_pads.area2_io_pad\[5\]/PAD_A_ESD_1_H mprj_io[30] mprj_io_dm[59] mprj_io_dm[58]
+ mprj_io_dm[57] vddio mprj_io_in[19] mprj_io_inp_dis[19] mprj_io_ib_mode_sel[19]
+ porb_h porb_h mprj_pads.area2_io_pad\[5\]/TIE_LO_ESD mprj_io_oeb[19] mprj_pads.area2_io_pad\[5\]/TIE_HI_ESD
+ mprj_pads.area2_io_pad\[5\]/TIE_LO_ESD mprj_io_slow_sel[19] mprj_io_vtrip_sel[19]
+ mprj_io_holdover[19] mprj_io_analog_en[19] mprj_io_analog_sel[19] vccd vssio mprj_io_analog_pol[19]
+ mprj_io_out[19] gpio_pad/AMUXBUS_A gpio_pad/AMUXBUS_B vssa2 vdda2 vddio gpio_pad/VDDIO_Q
+ vccd vddio vccd2 vssio vssd2 gpio_pad/VSSIO_Q sky130_ef_io__gpiov2_pad_wrapped
XFILLER_788 gpio_pad/AMUXBUS_A gpio_pad/AMUXBUS_B vssa1 vdda1 vddio gpio_pad/VDDIO_Q
+ vccd vddio vccd1 vssio vssd1 gpio_pad/VSSIO_Q sky130_ef_io__com_bus_slice_5um
XFILLER_777 gpio_pad/AMUXBUS_A gpio_pad/AMUXBUS_B vssa1 vdda1 vddio gpio_pad/VDDIO_Q
+ vccd vddio vccd1 vssio vssd1 gpio_pad/VSSIO_Q sky130_ef_io__com_bus_slice_20um
XFILLER_766 gpio_pad/AMUXBUS_A gpio_pad/AMUXBUS_B vssa1 vdda1 vddio gpio_pad/VDDIO_Q
+ vccd vddio vccd1 vssio vssd1 gpio_pad/VSSIO_Q sky130_ef_io__com_bus_slice_20um
XFILLER_755 gpio_pad/AMUXBUS_A gpio_pad/AMUXBUS_B vssa1 vdda1 vddio gpio_pad/VDDIO_Q
+ vccd vddio vccd1 vssio vssd1 gpio_pad/VSSIO_Q sky130_ef_io__com_bus_slice_20um
XFILLER_733 gpio_pad/AMUXBUS_A gpio_pad/AMUXBUS_B vssa1 vdda1 vddio gpio_pad/VDDIO_Q
+ vccd vddio vccd1 vssio vssd1 gpio_pad/VSSIO_Q sky130_ef_io__com_bus_slice_20um
XFILLER_722 gpio_pad/AMUXBUS_A gpio_pad/AMUXBUS_B vssa1 vdda1 vddio gpio_pad/VDDIO_Q
+ vccd vddio vccd1 vssio vssd1 gpio_pad/VSSIO_Q sky130_ef_io__com_bus_slice_20um
XFILLER_711 gpio_pad/AMUXBUS_A gpio_pad/AMUXBUS_B vssa1 vdda1 vddio gpio_pad/VDDIO_Q
+ vccd vddio vccd1 vssio vssd1 gpio_pad/VSSIO_Q sky130_ef_io__com_bus_slice_20um
XFILLER_700 gpio_pad/AMUXBUS_A gpio_pad/AMUXBUS_B vssa1 vdda1 vddio gpio_pad/VDDIO_Q
+ vccd vddio vccd1 vssio vssd1 gpio_pad/VSSIO_Q sky130_ef_io__com_bus_slice_20um