* NGSPICE file created from digital_pll.ext - technology: sky130A

* Black-box entry subcircuit for sky130_fd_sc_hd__fill_1 abstract view
.subckt sky130_fd_sc_hd__fill_1 VGND VNB VPB VPWR
.ends

* Black-box entry subcircuit for sky130_fd_sc_hd__decap_4 abstract view
.subckt sky130_fd_sc_hd__decap_4 VGND VNB VPB VPWR
.ends

* Black-box entry subcircuit for sky130_fd_sc_hd__or3_2 abstract view
.subckt sky130_fd_sc_hd__or3_2 A B C VGND VNB VPB VPWR X
.ends

* Black-box entry subcircuit for sky130_fd_sc_hd__decap_3 abstract view
.subckt sky130_fd_sc_hd__decap_3 VGND VNB VPB VPWR
.ends

* Black-box entry subcircuit for sky130_fd_sc_hd__dfrtp_2 abstract view
.subckt sky130_fd_sc_hd__dfrtp_2 CLK D RESET_B VGND VNB VPB VPWR Q
.ends

* Black-box entry subcircuit for sky130_fd_sc_hd__clkinv_1 abstract view
.subckt sky130_fd_sc_hd__clkinv_1 A VGND VNB VPB VPWR Y
.ends

* Black-box entry subcircuit for sky130_fd_sc_hd__mux2_1 abstract view
.subckt sky130_fd_sc_hd__mux2_1 A0 A1 S VGND VNB VPB VPWR X
.ends

* Black-box entry subcircuit for sky130_fd_sc_hd__a311o_2 abstract view
.subckt sky130_fd_sc_hd__a311o_2 A1 A2 A3 B1 C1 VGND VNB VPB VPWR X
.ends

* Black-box entry subcircuit for sky130_fd_sc_hd__fill_2 abstract view
.subckt sky130_fd_sc_hd__fill_2 VGND VNB VPB VPWR
.ends

* Black-box entry subcircuit for sky130_fd_sc_hd__a2bb2o_2 abstract view
.subckt sky130_fd_sc_hd__a2bb2o_2 A1_N A2_N B1 B2 VGND VNB VPB VPWR X
.ends

* Black-box entry subcircuit for sky130_fd_sc_hd__einvp_2 abstract view
.subckt sky130_fd_sc_hd__einvp_2 A TE VGND VNB VPB VPWR Z
.ends

* Black-box entry subcircuit for sky130_fd_sc_hd__einvn_8 abstract view
.subckt sky130_fd_sc_hd__einvn_8 A TE_B VGND VNB VPB VPWR Z
.ends

* Black-box entry subcircuit for sky130_fd_sc_hd__o311a_2 abstract view
.subckt sky130_fd_sc_hd__o311a_2 A1 A2 A3 B1 C1 VGND VNB VPB VPWR X
.ends

* Black-box entry subcircuit for sky130_fd_sc_hd__or2_2 abstract view
.subckt sky130_fd_sc_hd__or2_2 A B VGND VNB VPB VPWR X
.ends

* Black-box entry subcircuit for sky130_fd_sc_hd__buf_2 abstract view
.subckt sky130_fd_sc_hd__buf_2 A VGND VNB VPB VPWR X
.ends

* Black-box entry subcircuit for sky130_fd_sc_hd__einvn_4 abstract view
.subckt sky130_fd_sc_hd__einvn_4 A TE_B VGND VNB VPB VPWR Z
.ends

* Black-box entry subcircuit for sky130_fd_sc_hd__nand2_2 abstract view
.subckt sky130_fd_sc_hd__nand2_2 A B VGND VNB VPB VPWR Y
.ends

* Black-box entry subcircuit for sky130_fd_sc_hd__o221a_2 abstract view
.subckt sky130_fd_sc_hd__o221a_2 A1 A2 B1 B2 C1 VGND VNB VPB VPWR X
.ends

* Black-box entry subcircuit for sky130_fd_sc_hd__buf_1 abstract view
.subckt sky130_fd_sc_hd__buf_1 A VGND VNB VPB VPWR X
.ends

* Black-box entry subcircuit for sky130_fd_sc_hd__decap_6 abstract view
.subckt sky130_fd_sc_hd__decap_6 VGND VNB VPB VPWR
.ends

* Black-box entry subcircuit for sky130_fd_sc_hd__clkbuf_2 abstract view
.subckt sky130_fd_sc_hd__clkbuf_2 A VGND VNB VPB VPWR X
.ends

* Black-box entry subcircuit for sky130_fd_sc_hd__a31o_2 abstract view
.subckt sky130_fd_sc_hd__a31o_2 A1 A2 A3 B1 VGND VNB VPB VPWR X
.ends

* Black-box entry subcircuit for sky130_fd_sc_hd__a32o_2 abstract view
.subckt sky130_fd_sc_hd__a32o_2 A1 A2 A3 B1 B2 VGND VNB VPB VPWR X
.ends

* Black-box entry subcircuit for sky130_fd_sc_hd__a22o_2 abstract view
.subckt sky130_fd_sc_hd__a22o_2 A1 A2 B1 B2 VGND VNB VPB VPWR X
.ends

* Black-box entry subcircuit for sky130_fd_sc_hd__clkbuf_1 abstract view
.subckt sky130_fd_sc_hd__clkbuf_1 A VGND VNB VPB VPWR X
.ends

* Black-box entry subcircuit for sky130_fd_sc_hd__o21ai_2 abstract view
.subckt sky130_fd_sc_hd__o21ai_2 A1 A2 B1 VGND VNB VPB VPWR Y
.ends

* Black-box entry subcircuit for sky130_fd_sc_hd__nor2_2 abstract view
.subckt sky130_fd_sc_hd__nor2_2 A B VGND VNB VPB VPWR Y
.ends

* Black-box entry subcircuit for sky130_fd_sc_hd__and4_2 abstract view
.subckt sky130_fd_sc_hd__and4_2 A B C D VGND VNB VPB VPWR X
.ends

* Black-box entry subcircuit for sky130_fd_sc_hd__inv_2 abstract view
.subckt sky130_fd_sc_hd__inv_2 A VGND VNB VPB VPWR Y
.ends

* Black-box entry subcircuit for sky130_fd_sc_hd__o22a_2 abstract view
.subckt sky130_fd_sc_hd__o22a_2 A1 A2 B1 B2 VGND VNB VPB VPWR X
.ends

* Black-box entry subcircuit for sky130_fd_sc_hd__a221o_2 abstract view
.subckt sky130_fd_sc_hd__a221o_2 A1 A2 B1 B2 C1 VGND VNB VPB VPWR X
.ends

* Black-box entry subcircuit for sky130_fd_sc_hd__decap_12 abstract view
.subckt sky130_fd_sc_hd__decap_12 VGND VNB VPB VPWR
.ends

* Black-box entry subcircuit for sky130_fd_sc_hd__tapvpwrvgnd_1 abstract view
.subckt sky130_fd_sc_hd__tapvpwrvgnd_1 VGND VPWR
.ends

* Black-box entry subcircuit for sky130_fd_sc_hd__a21oi_2 abstract view
.subckt sky130_fd_sc_hd__a21oi_2 A1 A2 B1 VGND VNB VPB VPWR Y
.ends

* Black-box entry subcircuit for sky130_fd_sc_hd__decap_8 abstract view
.subckt sky130_fd_sc_hd__decap_8 VGND VNB VPB VPWR
.ends

* Black-box entry subcircuit for sky130_fd_sc_hd__o31a_2 abstract view
.subckt sky130_fd_sc_hd__o31a_2 A1 A2 A3 B1 VGND VNB VPB VPWR X
.ends

* Black-box entry subcircuit for sky130_fd_sc_hd__o221ai_2 abstract view
.subckt sky130_fd_sc_hd__o221ai_2 A1 A2 B1 B2 C1 VGND VNB VPB VPWR Y
.ends

* Black-box entry subcircuit for sky130_fd_sc_hd__einvp_1 abstract view
.subckt sky130_fd_sc_hd__einvp_1 A TE VGND VNB VPB VPWR Z
.ends

* Black-box entry subcircuit for sky130_fd_sc_hd__and3_2 abstract view
.subckt sky130_fd_sc_hd__and3_2 A B C VGND VNB VPB VPWR X
.ends

* Black-box entry subcircuit for sky130_fd_sc_hd__a21bo_2 abstract view
.subckt sky130_fd_sc_hd__a21bo_2 A1 A2 B1_N VGND VNB VPB VPWR X
.ends

* Black-box entry subcircuit for sky130_fd_sc_hd__o41a_2 abstract view
.subckt sky130_fd_sc_hd__o41a_2 A1 A2 A3 A4 B1 VGND VNB VPB VPWR X
.ends

* Black-box entry subcircuit for sky130_fd_sc_hd__o2bb2a_2 abstract view
.subckt sky130_fd_sc_hd__o2bb2a_2 A1_N A2_N B1 B2 VGND VNB VPB VPWR X
.ends

* Black-box entry subcircuit for sky130_fd_sc_hd__o21a_2 abstract view
.subckt sky130_fd_sc_hd__o21a_2 A1 A2 B1 VGND VNB VPB VPWR X
.ends

* Black-box entry subcircuit for sky130_fd_sc_hd__o22ai_2 abstract view
.subckt sky130_fd_sc_hd__o22ai_2 A1 A2 B1 B2 VGND VNB VPB VPWR Y
.ends

* Black-box entry subcircuit for sky130_fd_sc_hd__clkinv_2 abstract view
.subckt sky130_fd_sc_hd__clkinv_2 A VGND VNB VPB VPWR Y
.ends

* Black-box entry subcircuit for sky130_fd_sc_hd__o32a_2 abstract view
.subckt sky130_fd_sc_hd__o32a_2 A1 A2 A3 B1 B2 VGND VNB VPB VPWR X
.ends

* Black-box entry subcircuit for sky130_fd_sc_hd__clkinv_8 abstract view
.subckt sky130_fd_sc_hd__clkinv_8 A VGND VNB VPB VPWR Y
.ends

* Black-box entry subcircuit for sky130_fd_sc_hd__o211a_2 abstract view
.subckt sky130_fd_sc_hd__o211a_2 A1 A2 B1 C1 VGND VNB VPB VPWR X
.ends

* Black-box entry subcircuit for sky130_fd_sc_hd__a21o_2 abstract view
.subckt sky130_fd_sc_hd__a21o_2 A1 A2 B1 VGND VNB VPB VPWR X
.ends

* Black-box entry subcircuit for sky130_fd_sc_hd__o2111ai_2 abstract view
.subckt sky130_fd_sc_hd__o2111ai_2 A1 A2 B1 C1 D1 VGND VNB VPB VPWR Y
.ends

* Black-box entry subcircuit for sky130_fd_sc_hd__conb_1 abstract view
.subckt sky130_fd_sc_hd__conb_1 VGND VNB VPB VPWR HI LO
.ends

* Black-box entry subcircuit for sky130_fd_sc_hd__o2bb2ai_2 abstract view
.subckt sky130_fd_sc_hd__o2bb2ai_2 A1_N A2_N B1 B2 VGND VNB VPB VPWR Y
.ends

* Black-box entry subcircuit for sky130_fd_sc_hd__and2_2 abstract view
.subckt sky130_fd_sc_hd__and2_2 A B VGND VNB VPB VPWR X
.ends

* Black-box entry subcircuit for sky130_fd_sc_hd__or4_2 abstract view
.subckt sky130_fd_sc_hd__or4_2 A B C D VGND VNB VPB VPWR X
.ends

* Black-box entry subcircuit for sky130_fd_sc_hd__a22oi_2 abstract view
.subckt sky130_fd_sc_hd__a22oi_2 A1 A2 B1 B2 VGND VNB VPB VPWR Y
.ends

.subckt digital_pll clockp[0] clockp[1] dco div[0] div[1] div[2] div[3] div[4] enable
+ ext_trim[0] ext_trim[10] ext_trim[11] ext_trim[12] ext_trim[13] ext_trim[14] ext_trim[15]
+ ext_trim[16] ext_trim[17] ext_trim[18] ext_trim[19] ext_trim[1] ext_trim[20] ext_trim[21]
+ ext_trim[22] ext_trim[23] ext_trim[24] ext_trim[25] ext_trim[2] ext_trim[3] ext_trim[4]
+ ext_trim[5] ext_trim[6] ext_trim[7] ext_trim[8] ext_trim[9] osc resetb VPWR VGND
XFILLER_26_74 VGND VGND VPWR VPWR sky130_fd_sc_hd__fill_1
XFILLER_26_63 VGND VGND VPWR VPWR sky130_fd_sc_hd__decap_4
XFILLER_26_30 VGND VGND VPWR VPWR sky130_fd_sc_hd__fill_1
X_294_ _297_/C _302_/C _301_/A VGND VGND VPWR VPWR _294_/X sky130_fd_sc_hd__or3_2
XFILLER_13_133 VGND VGND VPWR VPWR sky130_fd_sc_hd__decap_3
X_363_ _328_/A _363_/D _318_/X VGND VGND VPWR VPWR _363_/Q sky130_fd_sc_hd__dfrtp_2
Xringosc.dstage\[1\].id.delayint0 ringosc.dstage\[1\].id.delayen1/Z VGND VGND VPWR
+ VPWR ringosc.dstage\[1\].id.delayen0/A sky130_fd_sc_hd__clkinv_1
X_346_ _288_/B ext_trim[3] dco VGND VGND VPWR VPWR _346_/X sky130_fd_sc_hd__mux2_1
X_277_ _362_/Q _272_/B _363_/Q _267_/B _226_/B VGND VGND VPWR VPWR _359_/D sky130_fd_sc_hd__a311o_2
XFILLER_23_53 VGND VGND VPWR VPWR sky130_fd_sc_hd__decap_4
XFILLER_23_42 VGND VGND VPWR VPWR sky130_fd_sc_hd__fill_2
X_200_ _196_/A _199_/Y _196_/A _199_/Y VGND VGND VPWR VPWR _200_/X sky130_fd_sc_hd__a2bb2o_2
X_329_ _292_/B _232_/B _370_/Q VGND VGND VPWR VPWR _329_/X sky130_fd_sc_hd__mux2_1
Xringosc.dstage\[11\].id.delayen1 ringosc.dstage\[11\].id.delayen1/A _331_/X VGND
+ VGND VPWR VPWR ringosc.dstage\[11\].id.delayen1/Z sky130_fd_sc_hd__einvp_2
XFILLER_2_132 VGND VGND VPWR VPWR sky130_fd_sc_hd__decap_4
XFILLER_9_55 VGND VGND VPWR VPWR sky130_fd_sc_hd__fill_2
XFILLER_9_66 VGND VGND VPWR VPWR sky130_fd_sc_hd__fill_2
XFILLER_22_7 VGND VGND VPWR VPWR sky130_fd_sc_hd__fill_2
XFILLER_18_42 VGND VGND VPWR VPWR sky130_fd_sc_hd__fill_2
XFILLER_20_98 VGND VGND VPWR VPWR sky130_fd_sc_hd__fill_2
XFILLER_20_87 VGND VGND VPWR VPWR sky130_fd_sc_hd__fill_2
Xringosc.dstage\[10\].id.delayenb0 ringosc.dstage\[10\].id.delayenb1/A _332_/X VGND
+ VGND VPWR VPWR ringosc.dstage\[10\].id.delayen0/Z sky130_fd_sc_hd__einvn_8
Xringosc.dstage\[9\].id.delayenb0 ringosc.dstage\[9\].id.delayenb1/A _334_/X VGND
+ VGND VPWR VPWR ringosc.dstage\[9\].id.delayen0/Z sky130_fd_sc_hd__einvn_8
XFILLER_15_21 VGND VGND VPWR VPWR sky130_fd_sc_hd__fill_2
XFILLER_16_131 VGND VGND VPWR VPWR sky130_fd_sc_hd__decap_4
XFILLER_22_134 VGND VGND VPWR VPWR sky130_fd_sc_hd__fill_2
XFILLER_7_8 VGND VGND VPWR VPWR sky130_fd_sc_hd__fill_2
XFILLER_26_86 VGND VGND VPWR VPWR sky130_fd_sc_hd__fill_1
X_293_ _367_/Q _221_/B _302_/B _370_/Q _232_/B VGND VGND VPWR VPWR _293_/X sky130_fd_sc_hd__o311a_2
X_362_ _328_/A _362_/D _319_/X VGND VGND VPWR VPWR _362_/Q sky130_fd_sc_hd__dfrtp_2
XFILLER_3_68 VGND VGND VPWR VPWR sky130_fd_sc_hd__fill_2
XFILLER_12_22 VGND VGND VPWR VPWR sky130_fd_sc_hd__fill_2
X_276_ _276_/A _276_/B VGND VGND VPWR VPWR _360_/D sky130_fd_sc_hd__or2_2
X_345_ _300_/X ext_trim[17] dco VGND VGND VPWR VPWR _345_/X sky130_fd_sc_hd__mux2_1
XFILLER_23_98 VGND VGND VPWR VPWR sky130_fd_sc_hd__fill_2
XFILLER_23_65 VGND VGND VPWR VPWR sky130_fd_sc_hd__decap_4
X_328_ _328_/A VGND VGND VPWR VPWR clockp[0] sky130_fd_sc_hd__buf_2
XFILLER_9_34 VGND VGND VPWR VPWR sky130_fd_sc_hd__fill_1
XFILLER_9_89 VGND VGND VPWR VPWR sky130_fd_sc_hd__fill_2
X_259_ _366_/Q _220_/Y _262_/A VGND VGND VPWR VPWR _259_/X sky130_fd_sc_hd__mux2_1
XFILLER_18_87 VGND VGND VPWR VPWR sky130_fd_sc_hd__decap_4
XFILLER_20_22 VGND VGND VPWR VPWR sky130_fd_sc_hd__fill_2
XFILLER_1_90 VGND VGND VPWR VPWR sky130_fd_sc_hd__decap_4
Xringosc.dstage\[10\].id.delayenb1 ringosc.dstage\[10\].id.delayenb1/A _333_/X VGND
+ VGND VPWR VPWR ringosc.dstage\[10\].id.delayen1/Z sky130_fd_sc_hd__einvn_4
Xringosc.dstage\[9\].id.delayenb1 ringosc.dstage\[9\].id.delayenb1/A _335_/X VGND
+ VGND VPWR VPWR ringosc.dstage\[9\].id.delayen1/Z sky130_fd_sc_hd__einvn_4
XFILLER_15_44 VGND VGND VPWR VPWR sky130_fd_sc_hd__decap_3
X_292_ _301_/A _292_/B VGND VGND VPWR VPWR _299_/B sky130_fd_sc_hd__nand2_2
X_361_ _328_/A _361_/D _320_/X VGND VGND VPWR VPWR _361_/Q sky130_fd_sc_hd__dfrtp_2
XFILLER_3_58 VGND VGND VPWR VPWR sky130_fd_sc_hd__fill_2
XFILLER_12_34 VGND VGND VPWR VPWR sky130_fd_sc_hd__decap_4
X_275_ _267_/A _267_/B _360_/Q _359_/Q _272_/D VGND VGND VPWR VPWR _276_/B sky130_fd_sc_hd__o221a_2
X_344_ _286_/X ext_trim[4] dco VGND VGND VPWR VPWR _344_/X sky130_fd_sc_hd__mux2_1
XFILLER_23_88 VGND VGND VPWR VPWR sky130_fd_sc_hd__decap_3
XFILLER_3_3 VGND VGND VPWR VPWR sky130_fd_sc_hd__fill_2
XFILLER_2_101 VGND VGND VPWR VPWR sky130_fd_sc_hd__fill_2
XFILLER_0_15 VGND VGND VPWR VPWR sky130_fd_sc_hd__fill_2
Xringosc.dstage\[4\].id.delayen0 ringosc.dstage\[4\].id.delayen0/A _344_/X VGND VGND
+ VPWR VPWR ringosc.dstage\[4\].id.delayen0/Z sky130_fd_sc_hd__einvp_2
X_189_ _371_/Q _226_/B VGND VGND VPWR VPWR _371_/D sky130_fd_sc_hd__or2_2
X_258_ _262_/A _262_/B VGND VGND VPWR VPWR _258_/X sky130_fd_sc_hd__or2_2
X_327_ _327_/A VGND VGND VPWR VPWR _327_/X sky130_fd_sc_hd__buf_1
XFILLER_6_47 VGND VGND VPWR VPWR sky130_fd_sc_hd__decap_4
XFILLER_16_122 VGND VGND VPWR VPWR sky130_fd_sc_hd__fill_2
XFILLER_15_12 VGND VGND VPWR VPWR sky130_fd_sc_hd__decap_6
Xringosc.dstage\[5\].id.delayenb0 ringosc.dstage\[5\].id.delayenb1/A _342_/X VGND
+ VGND VPWR VPWR ringosc.ibufp10/A sky130_fd_sc_hd__einvn_8
Xringosc.dstage\[10\].id.delaybuf0 ringosc.dstage\[9\].id.delayen0/Z VGND VGND VPWR
+ VPWR ringosc.dstage\[10\].id.delayenb1/A sky130_fd_sc_hd__clkbuf_2
Xringosc.dstage\[9\].id.delaybuf0 ringosc.dstage\[8\].id.delayen0/Z VGND VGND VPWR
+ VPWR ringosc.dstage\[9\].id.delayenb1/A sky130_fd_sc_hd__clkbuf_2
XFILLER_22_103 VGND VGND VPWR VPWR sky130_fd_sc_hd__decap_4
X_291_ _369_/Q _368_/Q _367_/Q _370_/Q VGND VGND VPWR VPWR _291_/X sky130_fd_sc_hd__a31o_2
X_360_ _328_/A _360_/D _321_/X VGND VGND VPWR VPWR _360_/Q sky130_fd_sc_hd__dfrtp_2
XFILLER_9_129 VGND VGND VPWR VPWR sky130_fd_sc_hd__fill_2
X_343_ _301_/Y ext_trim[18] dco VGND VGND VPWR VPWR _343_/X sky130_fd_sc_hd__mux2_1
X_274_ _272_/D _268_/A _273_/Y _276_/A VGND VGND VPWR VPWR _361_/D sky130_fd_sc_hd__a31o_2
XFILLER_23_23 VGND VGND VPWR VPWR sky130_fd_sc_hd__fill_1
XFILLER_0_27 VGND VGND VPWR VPWR sky130_fd_sc_hd__fill_2
Xringosc.dstage\[4\].id.delayen1 ringosc.dstage\[4\].id.delayen1/A _345_/X VGND VGND
+ VPWR VPWR ringosc.dstage\[4\].id.delayen1/Z sky130_fd_sc_hd__einvp_2
X_326_ _370_/Q VGND VGND VPWR VPWR _326_/X sky130_fd_sc_hd__buf_1
X_257_ _236_/A _251_/X _256_/Y _368_/Q _236_/Y VGND VGND VPWR VPWR _368_/D sky130_fd_sc_hd__a32o_2
X_188_ _372_/Q _272_/D _371_/Q _226_/B VGND VGND VPWR VPWR _372_/D sky130_fd_sc_hd__a22o_2
XFILLER_9_58 VGND VGND VPWR VPWR sky130_fd_sc_hd__decap_3
XFILLER_18_67 VGND VGND VPWR VPWR sky130_fd_sc_hd__decap_4
XFILLER_18_56 VGND VGND VPWR VPWR sky130_fd_sc_hd__fill_2
X_309_ _327_/A VGND VGND VPWR VPWR _309_/X sky130_fd_sc_hd__buf_1
XFILLER_10_90 VGND VGND VPWR VPWR sky130_fd_sc_hd__decap_3
XFILLER_25_112 VGND VGND VPWR VPWR sky130_fd_sc_hd__fill_2
Xringosc.dstage\[9\].id.delaybuf1 ringosc.dstage\[9\].id.delayenb1/A VGND VGND VPWR
+ VPWR ringosc.dstage\[9\].id.delayen1/A sky130_fd_sc_hd__clkbuf_1
Xringosc.dstage\[5\].id.delayenb1 ringosc.dstage\[5\].id.delayenb1/A _343_/X VGND
+ VGND VPWR VPWR ringosc.dstage\[5\].id.delayen1/Z sky130_fd_sc_hd__einvn_4
Xringosc.dstage\[10\].id.delaybuf1 ringosc.dstage\[10\].id.delayenb1/A VGND VGND VPWR
+ VPWR ringosc.dstage\[10\].id.delayen1/A sky130_fd_sc_hd__clkbuf_1
XFILLER_11_3 VGND VGND VPWR VPWR sky130_fd_sc_hd__fill_1
XFILLER_26_56 VGND VGND VPWR VPWR sky130_fd_sc_hd__fill_2
XFILLER_26_45 VGND VGND VPWR VPWR sky130_fd_sc_hd__fill_2
XFILLER_26_34 VGND VGND VPWR VPWR sky130_fd_sc_hd__fill_2
XFILLER_13_115 VGND VGND VPWR VPWR sky130_fd_sc_hd__decap_4
X_290_ _369_/Q _368_/Q _297_/C _370_/Q VGND VGND VPWR VPWR _290_/X sky130_fd_sc_hd__a31o_2
XFILLER_9_119 VGND VGND VPWR VPWR sky130_fd_sc_hd__fill_2
X_342_ _283_/X ext_trim[5] dco VGND VGND VPWR VPWR _342_/X sky130_fd_sc_hd__mux2_1
X_273_ _267_/A _267_/B _267_/C VGND VGND VPWR VPWR _273_/Y sky130_fd_sc_hd__o21ai_2
XFILLER_5_133 VGND VGND VPWR VPWR sky130_fd_sc_hd__decap_3
XFILLER_12_47 VGND VGND VPWR VPWR sky130_fd_sc_hd__fill_2
XFILLER_12_69 VGND VGND VPWR VPWR sky130_fd_sc_hd__fill_2
X_325_ _327_/A VGND VGND VPWR VPWR _325_/X sky130_fd_sc_hd__buf_1
X_256_ _256_/A _256_/B VGND VGND VPWR VPWR _256_/Y sky130_fd_sc_hd__nand2_2
X_187_ _372_/Q _226_/B _373_/Q _272_/D VGND VGND VPWR VPWR _373_/D sky130_fd_sc_hd__a22o_2
X_239_ _288_/A _239_/B VGND VGND VPWR VPWR _239_/Y sky130_fd_sc_hd__nor2_2
X_308_ _327_/A VGND VGND VPWR VPWR _308_/X sky130_fd_sc_hd__buf_1
XFILLER_19_110 VGND VGND VPWR VPWR sky130_fd_sc_hd__decap_4
XFILLER_6_27 VGND VGND VPWR VPWR sky130_fd_sc_hd__fill_2
XFILLER_6_38 VGND VGND VPWR VPWR sky130_fd_sc_hd__fill_2
XFILLER_25_135 VGND VGND VPWR VPWR sky130_fd_sc_hd__fill_1
XFILLER_15_69 VGND VGND VPWR VPWR sky130_fd_sc_hd__decap_4
XFILLER_15_58 VGND VGND VPWR VPWR sky130_fd_sc_hd__fill_1
XFILLER_16_135 VGND VGND VPWR VPWR sky130_fd_sc_hd__fill_1
XFILLER_13_105 VGND VGND VPWR VPWR sky130_fd_sc_hd__fill_2
Xringosc.dstage\[5\].id.delaybuf0 ringosc.dstage\[4\].id.delayen0/Z VGND VGND VPWR
+ VPWR ringosc.dstage\[5\].id.delayenb1/A sky130_fd_sc_hd__clkbuf_2
X_341_ _299_/B ext_trim[19] dco VGND VGND VPWR VPWR _341_/X sky130_fd_sc_hd__mux2_1
X_272_ _362_/Q _272_/B _363_/Q _272_/D VGND VGND VPWR VPWR _276_/A sky130_fd_sc_hd__and4_2
Xringosc.dstage\[1\].id.delayenb0 ringosc.dstage\[1\].id.delayenb1/A _350_/X VGND
+ VGND VPWR VPWR ringosc.dstage\[1\].id.delayen0/Z sky130_fd_sc_hd__einvn_8
Xringosc.dstage\[8\].id.delayint0 ringosc.dstage\[8\].id.delayen1/Z VGND VGND VPWR
+ VPWR ringosc.dstage\[8\].id.delayen0/A sky130_fd_sc_hd__clkinv_1
XFILLER_5_112 VGND VGND VPWR VPWR sky130_fd_sc_hd__fill_2
XFILLER_5_123 VGND VGND VPWR VPWR sky130_fd_sc_hd__fill_2
XFILLER_23_69 VGND VGND VPWR VPWR sky130_fd_sc_hd__fill_1
XFILLER_4_82 VGND VGND VPWR VPWR sky130_fd_sc_hd__decap_4
X_255_ _297_/A _236_/A _254_/X VGND VGND VPWR VPWR _369_/D sky130_fd_sc_hd__o21ai_2
X_186_ _374_/Q _272_/D _359_/Q _226_/B VGND VGND VPWR VPWR _374_/D sky130_fd_sc_hd__a22o_2
XFILLER_9_38 VGND VGND VPWR VPWR sky130_fd_sc_hd__fill_2
XFILLER_9_49 VGND VGND VPWR VPWR sky130_fd_sc_hd__decap_3
X_324_ _327_/A VGND VGND VPWR VPWR _324_/X sky130_fd_sc_hd__buf_1
XFILLER_1_3 VGND VGND VPWR VPWR sky130_fd_sc_hd__decap_6
X_307_ _327_/A VGND VGND VPWR VPWR _307_/X sky130_fd_sc_hd__buf_1
X_169_ _374_/Q VGND VGND VPWR VPWR _193_/B sky130_fd_sc_hd__inv_2
X_238_ _224_/A _220_/A _224_/B _237_/X VGND VGND VPWR VPWR _262_/A sky130_fd_sc_hd__o22a_2
XFILLER_20_59 VGND VGND VPWR VPWR sky130_fd_sc_hd__fill_2
XFILLER_19_133 VGND VGND VPWR VPWR sky130_fd_sc_hd__decap_3
XPHY_0 VGND VGND VPWR VPWR sky130_fd_sc_hd__decap_3
XFILLER_13_128 VGND VGND VPWR VPWR sky130_fd_sc_hd__fill_2
XFILLER_8_110 VGND VGND VPWR VPWR sky130_fd_sc_hd__fill_2
Xringosc.dstage\[5\].id.delaybuf1 ringosc.dstage\[5\].id.delayenb1/A VGND VGND VPWR
+ VPWR ringosc.dstage\[5\].id.delayen1/A sky130_fd_sc_hd__clkbuf_1
Xringosc.dstage\[1\].id.delayenb1 ringosc.dstage\[1\].id.delayenb1/A _351_/X VGND
+ VGND VPWR VPWR ringosc.dstage\[1\].id.delayen1/Z sky130_fd_sc_hd__einvn_4
XFILLER_12_27 VGND VGND VPWR VPWR sky130_fd_sc_hd__fill_2
X_340_ _279_/X ext_trim[6] dco VGND VGND VPWR VPWR _340_/X sky130_fd_sc_hd__mux2_1
X_271_ _362_/Q _272_/B _363_/Q _269_/Y _272_/D VGND VGND VPWR VPWR _362_/D sky130_fd_sc_hd__o221a_2
Xringosc.dstage\[1\].id.delayen0 ringosc.dstage\[1\].id.delayen0/A _350_/X VGND VGND
+ VPWR VPWR ringosc.dstage\[1\].id.delayen0/Z sky130_fd_sc_hd__einvp_2
X_254_ _244_/Y _253_/A _244_/A _253_/Y _236_/Y VGND VGND VPWR VPWR _254_/X sky130_fd_sc_hd__a221o_2
X_185_ _375_/Q _272_/D _360_/Q _226_/B VGND VGND VPWR VPWR _375_/D sky130_fd_sc_hd__a22o_2
X_323_ _327_/A VGND VGND VPWR VPWR _323_/X sky130_fd_sc_hd__buf_1
XFILLER_18_37 VGND VGND VPWR VPWR sky130_fd_sc_hd__fill_2
X_306_ _327_/A VGND VGND VPWR VPWR _306_/X sky130_fd_sc_hd__buf_1
X_168_ _359_/Q VGND VGND VPWR VPWR _267_/B sky130_fd_sc_hd__inv_2
X_237_ _365_/Q _220_/Y _224_/A _220_/A VGND VGND VPWR VPWR _237_/X sky130_fd_sc_hd__a22o_2
XFILLER_20_49 VGND VGND VPWR VPWR sky130_fd_sc_hd__fill_2
XFILLER_20_27 VGND VGND VPWR VPWR sky130_fd_sc_hd__fill_2
XFILLER_1_62 VGND VGND VPWR VPWR sky130_fd_sc_hd__fill_2
XFILLER_6_18 VGND VGND VPWR VPWR sky130_fd_sc_hd__fill_2
XFILLER_25_115 VGND VGND VPWR VPWR sky130_fd_sc_hd__decap_12
XPHY_110 VGND VPWR sky130_fd_sc_hd__tapvpwrvgnd_1
XFILLER_22_129 VGND VGND VPWR VPWR sky130_fd_sc_hd__fill_2
XFILLER_22_107 VGND VGND VPWR VPWR sky130_fd_sc_hd__fill_1
XFILLER_21_92 VGND VGND VPWR VPWR sky130_fd_sc_hd__fill_2
XFILLER_21_81 VGND VGND VPWR VPWR sky130_fd_sc_hd__fill_2
XPHY_1 VGND VGND VPWR VPWR sky130_fd_sc_hd__decap_3
XFILLER_7_61 VGND VGND VPWR VPWR sky130_fd_sc_hd__decap_3
XFILLER_26_15 VGND VGND VPWR VPWR sky130_fd_sc_hd__decap_12
XFILLER_8_133 VGND VGND VPWR VPWR sky130_fd_sc_hd__decap_3
X_270_ _164_/Y _269_/Y _226_/B VGND VGND VPWR VPWR _363_/D sky130_fd_sc_hd__a21oi_2
Xringosc.dstage\[1\].id.delayen1 ringosc.dstage\[1\].id.delayen1/A _351_/X VGND VGND
+ VPWR VPWR ringosc.dstage\[1\].id.delayen1/Z sky130_fd_sc_hd__einvp_2
XFILLER_4_51 VGND VGND VPWR VPWR sky130_fd_sc_hd__fill_2
X_322_ _327_/A VGND VGND VPWR VPWR _322_/X sky130_fd_sc_hd__buf_1
Xringosc.dstage\[1\].id.delaybuf0 ringosc.dstage\[0\].id.delayen0/Z VGND VGND VPWR
+ VPWR ringosc.dstage\[1\].id.delayenb1/A sky130_fd_sc_hd__clkbuf_2
X_253_ _253_/A VGND VGND VPWR VPWR _253_/Y sky130_fd_sc_hd__inv_2
X_184_ _376_/Q _272_/D _361_/Q _226_/B VGND VGND VPWR VPWR _376_/D sky130_fd_sc_hd__a22o_2
Xringosc.dstage\[4\].id.delayint0 ringosc.dstage\[4\].id.delayen1/Z VGND VGND VPWR
+ VPWR ringosc.dstage\[4\].id.delayen0/A sky130_fd_sc_hd__clkinv_1
XFILLER_18_27 VGND VGND VPWR VPWR sky130_fd_sc_hd__fill_2
X_167_ _360_/Q VGND VGND VPWR VPWR _267_/A sky130_fd_sc_hd__inv_2
X_305_ _327_/A VGND VGND VPWR VPWR _305_/X sky130_fd_sc_hd__buf_1
X_236_ _236_/A VGND VGND VPWR VPWR _236_/Y sky130_fd_sc_hd__inv_2
XFILLER_20_39 VGND VGND VPWR VPWR sky130_fd_sc_hd__fill_2
XFILLER_1_85 VGND VGND VPWR VPWR sky130_fd_sc_hd__fill_2
XFILLER_10_83 VGND VGND VPWR VPWR sky130_fd_sc_hd__decap_3
XFILLER_19_124 VGND VGND VPWR VPWR sky130_fd_sc_hd__fill_2
X_219_ _219_/A _219_/B VGND VGND VPWR VPWR _220_/A sky130_fd_sc_hd__or2_2
XFILLER_25_127 VGND VGND VPWR VPWR sky130_fd_sc_hd__decap_8
Xringosc.dstage\[9\].id.delayen0 ringosc.dstage\[9\].id.delayen0/A _334_/X VGND VGND
+ VPWR VPWR ringosc.dstage\[9\].id.delayen0/Z sky130_fd_sc_hd__einvp_2
XPHY_100 VGND VPWR sky130_fd_sc_hd__tapvpwrvgnd_1
XFILLER_15_28 VGND VGND VPWR VPWR sky130_fd_sc_hd__decap_3
XPHY_111 VGND VPWR sky130_fd_sc_hd__tapvpwrvgnd_1
XFILLER_22_119 VGND VGND VPWR VPWR sky130_fd_sc_hd__decap_6
XPHY_2 VGND VGND VPWR VPWR sky130_fd_sc_hd__decap_3
XFILLER_11_7 VGND VGND VPWR VPWR sky130_fd_sc_hd__fill_2
XFILLER_26_27 VGND VGND VPWR VPWR sky130_fd_sc_hd__fill_2
Xringosc.dstage\[1\].id.delaybuf1 ringosc.dstage\[1\].id.delayenb1/A VGND VGND VPWR
+ VPWR ringosc.dstage\[1\].id.delayen1/A sky130_fd_sc_hd__clkbuf_1
X_252_ _280_/B _220_/A _251_/X VGND VGND VPWR VPWR _253_/A sky130_fd_sc_hd__o21ai_2
X_183_ _377_/Q _272_/D _362_/Q _226_/B VGND VGND VPWR VPWR _377_/D sky130_fd_sc_hd__a22o_2
X_321_ _327_/A VGND VGND VPWR VPWR _321_/X sky130_fd_sc_hd__buf_1
X_304_ _288_/A _239_/B _302_/B _370_/Q _232_/B VGND VGND VPWR VPWR _304_/X sky130_fd_sc_hd__o311a_2
X_235_ _301_/A _220_/Y _224_/X _234_/X VGND VGND VPWR VPWR _236_/A sky130_fd_sc_hd__o31a_2
XFILLER_1_31 VGND VGND VPWR VPWR sky130_fd_sc_hd__decap_4
X_166_ _361_/Q VGND VGND VPWR VPWR _267_/C sky130_fd_sc_hd__inv_2
XFILLER_19_103 VGND VGND VPWR VPWR sky130_fd_sc_hd__fill_2
X_218_ _164_/Y _165_/Y div[4] _216_/B _214_/X VGND VGND VPWR VPWR _219_/B sky130_fd_sc_hd__o221ai_2
Xringosc.dstage\[9\].id.delayen1 ringosc.dstage\[9\].id.delayen1/A _335_/X VGND VGND
+ VPWR VPWR ringosc.dstage\[9\].id.delayen1/Z sky130_fd_sc_hd__einvp_2
XPHY_101 VGND VPWR sky130_fd_sc_hd__tapvpwrvgnd_1
XPHY_3 VGND VGND VPWR VPWR sky130_fd_sc_hd__decap_3
XFILLER_7_85 VGND VGND VPWR VPWR sky130_fd_sc_hd__decap_6
XFILLER_16_94 VGND VGND VPWR VPWR sky130_fd_sc_hd__fill_2
XFILLER_16_83 VGND VGND VPWR VPWR sky130_fd_sc_hd__decap_3
XFILLER_16_50 VGND VGND VPWR VPWR sky130_fd_sc_hd__decap_4
XFILLER_8_102 VGND VGND VPWR VPWR sky130_fd_sc_hd__decap_4
XFILLER_12_120 VGND VGND VPWR VPWR sky130_fd_sc_hd__fill_2
XFILLER_2_108 VGND VGND VPWR VPWR sky130_fd_sc_hd__decap_3
XFILLER_4_75 VGND VGND VPWR VPWR sky130_fd_sc_hd__fill_2
X_182_ dco _182_/B VGND VGND VPWR VPWR _327_/A sky130_fd_sc_hd__nor2_2
X_251_ _256_/A _256_/B VGND VGND VPWR VPWR _251_/X sky130_fd_sc_hd__or2_2
X_320_ _327_/A VGND VGND VPWR VPWR _320_/X sky130_fd_sc_hd__buf_1
XFILLER_18_18 VGND VGND VPWR VPWR sky130_fd_sc_hd__fill_2
X_303_ _297_/A _368_/Q _367_/Q _302_/X VGND VGND VPWR VPWR _303_/X sky130_fd_sc_hd__o31a_2
X_165_ _378_/Q VGND VGND VPWR VPWR _165_/Y sky130_fd_sc_hd__inv_2
X_234_ _219_/B _225_/Y _220_/A _233_/X _226_/X VGND VGND VPWR VPWR _234_/X sky130_fd_sc_hd__o221a_2
Xringosc.dstage\[0\].id.delayint0 ringosc.dstage\[0\].id.delayen1/Z VGND VGND VPWR
+ VPWR ringosc.dstage\[0\].id.delayen0/A sky130_fd_sc_hd__clkinv_1
Xringosc.iss.reseten0 ringosc.iss.const1/HI _182_/B VGND VGND VPWR VPWR ringosc.ibufp00/A
+ sky130_fd_sc_hd__einvp_1
XFILLER_19_83 VGND VGND VPWR VPWR sky130_fd_sc_hd__decap_4
XFILLER_19_50 VGND VGND VPWR VPWR sky130_fd_sc_hd__fill_2
X_217_ _201_/Y _203_/Y _205_/Y _211_/Y _216_/Y VGND VGND VPWR VPWR _219_/A sky130_fd_sc_hd__o221a_2
XFILLER_25_3 VGND VGND VPWR VPWR sky130_fd_sc_hd__decap_12
XPHY_102 VGND VPWR sky130_fd_sc_hd__tapvpwrvgnd_1
XPHY_4 VGND VGND VPWR VPWR sky130_fd_sc_hd__decap_3
XFILLER_7_31 VGND VGND VPWR VPWR sky130_fd_sc_hd__fill_2
Xringosc.dstage\[8\].id.delayenb0 ringosc.dstage\[8\].id.delayenb1/A _336_/X VGND
+ VGND VPWR VPWR ringosc.dstage\[8\].id.delayen0/Z sky130_fd_sc_hd__einvn_8
XFILLER_5_128 VGND VGND VPWR VPWR sky130_fd_sc_hd__fill_2
XFILLER_23_19 VGND VGND VPWR VPWR sky130_fd_sc_hd__decap_4
XFILLER_4_43 VGND VGND VPWR VPWR sky130_fd_sc_hd__fill_1
X_181_ enable resetb VGND VGND VPWR VPWR _182_/B sky130_fd_sc_hd__nand2_2
XFILLER_13_96 VGND VGND VPWR VPWR sky130_fd_sc_hd__fill_2
X_250_ _301_/A _236_/A _249_/X VGND VGND VPWR VPWR _370_/D sky130_fd_sc_hd__o21ai_2
XFILLER_24_84 VGND VGND VPWR VPWR sky130_fd_sc_hd__fill_2
X_302_ _370_/Q _302_/B _302_/C VGND VGND VPWR VPWR _302_/X sky130_fd_sc_hd__and3_2
XFILLER_1_55 VGND VGND VPWR VPWR sky130_fd_sc_hd__fill_2
XFILLER_1_44 VGND VGND VPWR VPWR sky130_fd_sc_hd__fill_2
X_164_ _363_/Q VGND VGND VPWR VPWR _164_/Y sky130_fd_sc_hd__inv_2
X_233_ _365_/Q _364_/Q _233_/C VGND VGND VPWR VPWR _233_/X sky130_fd_sc_hd__or3_2
XFILLER_10_53 VGND VGND VPWR VPWR sky130_fd_sc_hd__fill_2
XFILLER_18_3 VGND VGND VPWR VPWR sky130_fd_sc_hd__decap_4
X_216_ div[4] _216_/B VGND VGND VPWR VPWR _216_/Y sky130_fd_sc_hd__nand2_2
XPHY_103 VGND VPWR sky130_fd_sc_hd__tapvpwrvgnd_1
XFILLER_21_74 VGND VGND VPWR VPWR sky130_fd_sc_hd__fill_2
Xringosc.iss.delayint0 ringosc.iss.delayen1/Z VGND VGND VPWR VPWR ringosc.iss.delayen0/A
+ sky130_fd_sc_hd__clkinv_1
XFILLER_15_130 VGND VGND VPWR VPWR sky130_fd_sc_hd__decap_6
XPHY_5 VGND VGND VPWR VPWR sky130_fd_sc_hd__decap_3
XFILLER_7_54 VGND VGND VPWR VPWR sky130_fd_sc_hd__decap_3
XFILLER_21_133 VGND VGND VPWR VPWR sky130_fd_sc_hd__decap_3
XFILLER_12_133 VGND VGND VPWR VPWR sky130_fd_sc_hd__decap_3
Xringosc.dstage\[8\].id.delayenb1 ringosc.dstage\[8\].id.delayenb1/A _337_/X VGND
+ VGND VPWR VPWR ringosc.dstage\[8\].id.delayen1/Z sky130_fd_sc_hd__einvn_4
XFILLER_4_99 VGND VGND VPWR VPWR sky130_fd_sc_hd__fill_2
XFILLER_13_86 VGND VGND VPWR VPWR sky130_fd_sc_hd__fill_2
X_180_ _378_/Q _272_/D _363_/Q _226_/B VGND VGND VPWR VPWR _378_/D sky130_fd_sc_hd__a22o_2
X_378_ _328_/A _378_/D _327_/X VGND VGND VPWR VPWR _378_/Q sky130_fd_sc_hd__dfrtp_2
XFILLER_1_9 VGND VGND VPWR VPWR sky130_fd_sc_hd__fill_1
X_232_ _370_/Q _232_/B VGND VGND VPWR VPWR _233_/C sky130_fd_sc_hd__or2_2
X_301_ _301_/A _301_/B VGND VGND VPWR VPWR _301_/Y sky130_fd_sc_hd__nor2_2
XFILLER_19_96 VGND VGND VPWR VPWR sky130_fd_sc_hd__fill_2
XFILLER_19_41 VGND VGND VPWR VPWR sky130_fd_sc_hd__fill_2
XFILLER_10_76 VGND VGND VPWR VPWR sky130_fd_sc_hd__fill_2
Xringosc.dstage\[6\].id.delayen0 ringosc.dstage\[6\].id.delayen0/A _340_/X VGND VGND
+ VPWR VPWR ringosc.dstage\[6\].id.delayen0/Z sky130_fd_sc_hd__einvp_2
X_215_ _214_/A _214_/B _214_/X VGND VGND VPWR VPWR _216_/B sky130_fd_sc_hd__a21bo_2
XPHY_104 VGND VPWR sky130_fd_sc_hd__tapvpwrvgnd_1
XFILLER_21_53 VGND VGND VPWR VPWR sky130_fd_sc_hd__decap_4
XFILLER_21_42 VGND VGND VPWR VPWR sky130_fd_sc_hd__fill_2
XPHY_6 VGND VGND VPWR VPWR sky130_fd_sc_hd__decap_3
XFILLER_21_112 VGND VGND VPWR VPWR sky130_fd_sc_hd__fill_2
X_377_ _328_/A _377_/D _327_/A VGND VGND VPWR VPWR _377_/Q sky130_fd_sc_hd__dfrtp_2
XFILLER_1_133 VGND VGND VPWR VPWR sky130_fd_sc_hd__decap_3
Xringosc.dstage\[8\].id.delaybuf0 ringosc.dstage\[7\].id.delayen0/Z VGND VGND VPWR
+ VPWR ringosc.dstage\[8\].id.delayenb1/A sky130_fd_sc_hd__clkbuf_2
Xringosc.dstage\[4\].id.delayenb0 ringosc.dstage\[4\].id.delayenb1/A _344_/X VGND
+ VGND VPWR VPWR ringosc.dstage\[4\].id.delayen0/Z sky130_fd_sc_hd__einvn_8
XFILLER_24_75 VGND VGND VPWR VPWR sky130_fd_sc_hd__fill_2
X_231_ _297_/C _302_/B VGND VGND VPWR VPWR _232_/B sky130_fd_sc_hd__or2_2
X_300_ _221_/A _366_/Q _301_/A _302_/C _296_/X VGND VGND VPWR VPWR _300_/X sky130_fd_sc_hd__o41a_2
Xringosc.dstage\[10\].id.delayen0 ringosc.dstage\[10\].id.delayen0/A _332_/X VGND
+ VGND VPWR VPWR ringosc.dstage\[10\].id.delayen0/Z sky130_fd_sc_hd__einvp_2
XFILLER_10_33 VGND VGND VPWR VPWR sky130_fd_sc_hd__fill_2
Xringosc.dstage\[6\].id.delayen1 ringosc.dstage\[6\].id.delayen1/A _341_/X VGND VGND
+ VPWR VPWR ringosc.dstage\[6\].id.delayen1/Z sky130_fd_sc_hd__einvp_2
X_214_ _214_/A _214_/B VGND VGND VPWR VPWR _214_/X sky130_fd_sc_hd__or2_2
XPHY_105 VGND VPWR sky130_fd_sc_hd__tapvpwrvgnd_1
XFILLER_21_21 VGND VGND VPWR VPWR sky130_fd_sc_hd__decap_4
XPHY_7 VGND VGND VPWR VPWR sky130_fd_sc_hd__decap_3
XFILLER_23_3 VGND VGND VPWR VPWR sky130_fd_sc_hd__decap_4
XFILLER_16_76 VGND VGND VPWR VPWR sky130_fd_sc_hd__fill_2
XFILLER_16_65 VGND VGND VPWR VPWR sky130_fd_sc_hd__fill_2