* NGSPICE file created from digital_pll.ext - technology: sky130A

* Black-box entry subcircuit for sky130_fd_sc_hd__decap_4 abstract view
.subckt sky130_fd_sc_hd__decap_4 VGND VNB VPB VPWR
.ends

* Black-box entry subcircuit for sky130_fd_sc_hd__fill_2 abstract view
.subckt sky130_fd_sc_hd__fill_2 VGND VNB VPB VPWR
.ends

* Black-box entry subcircuit for sky130_fd_sc_hd__fill_1 abstract view
.subckt sky130_fd_sc_hd__fill_1 VGND VNB VPB VPWR
.ends

* Black-box entry subcircuit for sky130_fd_sc_hd__or2_4 abstract view
.subckt sky130_fd_sc_hd__or2_4 A B VGND VNB VPB VPWR X
.ends

* Black-box entry subcircuit for sky130_fd_sc_hd__inv_2 abstract view
.subckt sky130_fd_sc_hd__inv_2 A VGND VNB VPB VPWR Y
.ends

* Black-box entry subcircuit for sky130_fd_sc_hd__a21o_4 abstract view
.subckt sky130_fd_sc_hd__a21o_4 A1 A2 B1 VGND VNB VPB VPWR X
.ends

* Black-box entry subcircuit for sky130_fd_sc_hd__a2bb2o_4 abstract view
.subckt sky130_fd_sc_hd__a2bb2o_4 A1_N A2_N B1 B2 VGND VNB VPB VPWR X
.ends

* Black-box entry subcircuit for sky130_fd_sc_hd__clkinv_1 abstract view
.subckt sky130_fd_sc_hd__clkinv_1 A VGND VNB VPB VPWR Y
.ends

* Black-box entry subcircuit for sky130_fd_sc_hd__or4_4 abstract view
.subckt sky130_fd_sc_hd__or4_4 A B C D VGND VNB VPB VPWR X
.ends

* Black-box entry subcircuit for sky130_fd_sc_hd__decap_3 abstract view
.subckt sky130_fd_sc_hd__decap_3 VGND VNB VPB VPWR
.ends

* Black-box entry subcircuit for sky130_fd_sc_hd__o22a_4 abstract view
.subckt sky130_fd_sc_hd__o22a_4 A1 A2 B1 B2 VGND VNB VPB VPWR X
.ends

* Black-box entry subcircuit for sky130_fd_sc_hd__einvp_2 abstract view
.subckt sky130_fd_sc_hd__einvp_2 A TE VGND VNB VPB VPWR Z
.ends

* Black-box entry subcircuit for sky130_fd_sc_hd__decap_12 abstract view
.subckt sky130_fd_sc_hd__decap_12 VGND VNB VPB VPWR
.ends

* Black-box entry subcircuit for sky130_fd_sc_hd__einvn_8 abstract view
.subckt sky130_fd_sc_hd__einvn_8 A TE_B VGND VNB VPB VPWR Z
.ends

* Black-box entry subcircuit for sky130_fd_sc_hd__decap_8 abstract view
.subckt sky130_fd_sc_hd__decap_8 VGND VNB VPB VPWR
.ends

* Black-box entry subcircuit for sky130_fd_sc_hd__decap_6 abstract view
.subckt sky130_fd_sc_hd__decap_6 VGND VNB VPB VPWR
.ends

* Black-box entry subcircuit for sky130_fd_sc_hd__tapvpwrvgnd_1 abstract view
.subckt sky130_fd_sc_hd__tapvpwrvgnd_1 VGND VPWR
.ends

* Black-box entry subcircuit for sky130_fd_sc_hd__a21bo_4 abstract view
.subckt sky130_fd_sc_hd__a21bo_4 A1 A2 B1_N VGND VNB VPB VPWR X
.ends

* Black-box entry subcircuit for sky130_fd_sc_hd__o21a_4 abstract view
.subckt sky130_fd_sc_hd__o21a_4 A1 A2 B1 VGND VNB VPB VPWR X
.ends

* Black-box entry subcircuit for sky130_fd_sc_hd__nor2_4 abstract view
.subckt sky130_fd_sc_hd__nor2_4 A B VGND VNB VPB VPWR Y
.ends

* Black-box entry subcircuit for sky130_fd_sc_hd__einvn_4 abstract view
.subckt sky130_fd_sc_hd__einvn_4 A TE_B VGND VNB VPB VPWR Z
.ends

* Black-box entry subcircuit for sky130_fd_sc_hd__dfrtp_4 abstract view
.subckt sky130_fd_sc_hd__dfrtp_4 CLK D RESET_B VGND VNB VPB VPWR Q
.ends

* Black-box entry subcircuit for sky130_fd_sc_hd__o32a_4 abstract view
.subckt sky130_fd_sc_hd__o32a_4 A1 A2 A3 B1 B2 VGND VNB VPB VPWR X
.ends

* Black-box entry subcircuit for sky130_fd_sc_hd__a211o_4 abstract view
.subckt sky130_fd_sc_hd__a211o_4 A1 A2 B1 C1 VGND VNB VPB VPWR X
.ends

* Black-box entry subcircuit for sky130_fd_sc_hd__clkbuf_2 abstract view
.subckt sky130_fd_sc_hd__clkbuf_2 A VGND VNB VPB VPWR X
.ends

* Black-box entry subcircuit for sky130_fd_sc_hd__a32o_4 abstract view
.subckt sky130_fd_sc_hd__a32o_4 A1 A2 A3 B1 B2 VGND VNB VPB VPWR X
.ends

* Black-box entry subcircuit for sky130_fd_sc_hd__or3_4 abstract view
.subckt sky130_fd_sc_hd__or3_4 A B C VGND VNB VPB VPWR X
.ends

* Black-box entry subcircuit for sky130_fd_sc_hd__and2_4 abstract view
.subckt sky130_fd_sc_hd__and2_4 A B VGND VNB VPB VPWR X
.ends

* Black-box entry subcircuit for sky130_fd_sc_hd__clkbuf_1 abstract view
.subckt sky130_fd_sc_hd__clkbuf_1 A VGND VNB VPB VPWR X
.ends

* Black-box entry subcircuit for sky130_fd_sc_hd__and3_4 abstract view
.subckt sky130_fd_sc_hd__and3_4 A B C VGND VNB VPB VPWR X
.ends

* Black-box entry subcircuit for sky130_fd_sc_hd__and4_4 abstract view
.subckt sky130_fd_sc_hd__and4_4 A B C D VGND VNB VPB VPWR X
.ends

* Black-box entry subcircuit for sky130_fd_sc_hd__buf_2 abstract view
.subckt sky130_fd_sc_hd__buf_2 A VGND VNB VPB VPWR X
.ends

* Black-box entry subcircuit for sky130_fd_sc_hd__einvp_1 abstract view
.subckt sky130_fd_sc_hd__einvp_1 A TE VGND VNB VPB VPWR Z
.ends

* Black-box entry subcircuit for sky130_fd_sc_hd__nand2_4 abstract view
.subckt sky130_fd_sc_hd__nand2_4 A B VGND VNB VPB VPWR Y
.ends

* Black-box entry subcircuit for sky130_fd_sc_hd__o21ai_4 abstract view
.subckt sky130_fd_sc_hd__o21ai_4 A1 A2 B1 VGND VNB VPB VPWR Y
.ends

* Black-box entry subcircuit for sky130_fd_sc_hd__a22oi_4 abstract view
.subckt sky130_fd_sc_hd__a22oi_4 A1 A2 B1 B2 VGND VNB VPB VPWR Y
.ends

* Black-box entry subcircuit for sky130_fd_sc_hd__clkinv_2 abstract view
.subckt sky130_fd_sc_hd__clkinv_2 A VGND VNB VPB VPWR Y
.ends

* Black-box entry subcircuit for sky130_fd_sc_hd__clkinv_8 abstract view
.subckt sky130_fd_sc_hd__clkinv_8 A VGND VNB VPB VPWR Y
.ends

* Black-box entry subcircuit for sky130_fd_sc_hd__conb_1 abstract view
.subckt sky130_fd_sc_hd__conb_1 VGND VNB VPB VPWR HI LO
.ends

* Black-box entry subcircuit for sky130_fd_sc_hd__or2_2 abstract view
.subckt sky130_fd_sc_hd__or2_2 A B VGND VNB VPB VPWR X
.ends

.subckt digital_pll clockp[0] clockp[1] dco div[0] div[1] div[2] div[3] div[4] enable
+ ext_trim[0] ext_trim[10] ext_trim[11] ext_trim[12] ext_trim[13] ext_trim[14] ext_trim[15]
+ ext_trim[16] ext_trim[17] ext_trim[18] ext_trim[19] ext_trim[1] ext_trim[20] ext_trim[21]
+ ext_trim[22] ext_trim[23] ext_trim[24] ext_trim[25] ext_trim[2] ext_trim[3] ext_trim[4]
+ ext_trim[5] ext_trim[6] ext_trim[7] ext_trim[8] ext_trim[9] osc resetb VPWR VGND
XFILLER_26_74 VGND VGND VPWR VPWR sky130_fd_sc_hd__decap_4
XFILLER_26_63 VGND VGND VPWR VPWR sky130_fd_sc_hd__fill_2
XFILLER_26_30 VGND VGND VPWR VPWR sky130_fd_sc_hd__fill_1
X_501_ _444_/B _501_/B VGND VGND VPWR VPWR _501_/X sky130_fd_sc_hd__or2_4
X_363_ _371_/A VGND VGND VPWR VPWR _363_/Y sky130_fd_sc_hd__inv_2
X_432_ dco ext_trim[2] _431_/Y VGND VGND VPWR VPWR _432_/X sky130_fd_sc_hd__a21o_4
XFILLER_13_188 VGND VGND VPWR VPWR sky130_fd_sc_hd__decap_4
X_294_ _388_/B _400_/C _564_/Q _400_/C VGND VGND VPWR VPWR _294_/X sky130_fd_sc_hd__a2bb2o_4
Xringosc.dstage\[1\].id.delayint0 ringosc.dstage\[1\].id.delayen1/Z VGND VGND VPWR
+ VPWR ringosc.dstage\[1\].id.delayen0/A sky130_fd_sc_hd__clkinv_1
X_415_ _559_/Q _411_/B _493_/C _415_/D VGND VGND VPWR VPWR _416_/A sky130_fd_sc_hd__or4_4
X_346_ _425_/C _506_/D _345_/X _344_/X VGND VGND VPWR VPWR _347_/A sky130_fd_sc_hd__or4_4
XFILLER_10_158 VGND VGND VPWR VPWR sky130_fd_sc_hd__decap_4
X_277_ div[0] VGND VGND VPWR VPWR _277_/Y sky130_fd_sc_hd__inv_2
XFILLER_23_75 VGND VGND VPWR VPWR sky130_fd_sc_hd__decap_4
XFILLER_2_154 VGND VGND VPWR VPWR sky130_fd_sc_hd__decap_3
XFILLER_2_121 VGND VGND VPWR VPWR sky130_fd_sc_hd__fill_1
X_329_ _259_/Y _260_/Y _322_/X _323_/X VGND VGND VPWR VPWR _329_/X sky130_fd_sc_hd__o22a_4
Xringosc.dstage\[11\].id.delayen1 ringosc.dstage\[11\].id.delayen1/A _519_/X VGND
+ VGND VPWR VPWR ringosc.dstage\[11\].id.delayen1/Z sky130_fd_sc_hd__einvp_2
XFILLER_34_63 VGND VGND VPWR VPWR sky130_fd_sc_hd__decap_12
Xringosc.dstage\[10\].id.delayenb0 ringosc.dstage\[10\].id.delaybuf0/X _453_/X VGND
+ VGND VPWR VPWR ringosc.dstage\[10\].id.delayen0/Z sky130_fd_sc_hd__einvn_8
XFILLER_34_164 VGND VGND VPWR VPWR sky130_fd_sc_hd__fill_1
XFILLER_34_153 VGND VGND VPWR VPWR sky130_fd_sc_hd__fill_2
Xringosc.dstage\[9\].id.delayenb0 ringosc.dstage\[9\].id.delaybuf0/X _452_/Y VGND
+ VGND VPWR VPWR ringosc.dstage\[9\].id.delayen0/Z sky130_fd_sc_hd__einvn_8
XFILLER_13_3 VGND VGND VPWR VPWR sky130_fd_sc_hd__decap_12
XFILLER_15_76 VGND VGND VPWR VPWR sky130_fd_sc_hd__decap_8
XFILLER_15_65 VGND VGND VPWR VPWR sky130_fd_sc_hd__decap_8
XFILLER_15_54 VGND VGND VPWR VPWR sky130_fd_sc_hd__decap_6
XPHY_170 VGND VPWR sky130_fd_sc_hd__tapvpwrvgnd_1
XFILLER_31_123 VGND VGND VPWR VPWR sky130_fd_sc_hd__decap_4
X_500_ dco ext_trim[18] _499_/X VGND VGND VPWR VPWR _500_/X sky130_fd_sc_hd__a21bo_4
X_431_ _430_/X VGND VGND VPWR VPWR _431_/Y sky130_fd_sc_hd__inv_2
X_362_ _559_/Q _332_/A _344_/X VGND VGND VPWR VPWR _371_/A sky130_fd_sc_hd__o21a_4
X_293_ _388_/A _400_/C _565_/Q _400_/C VGND VGND VPWR VPWR _565_/D sky130_fd_sc_hd__a2bb2o_4
XFILLER_9_116 VGND VGND VPWR VPWR sky130_fd_sc_hd__decap_6
XFILLER_9_127 VGND VGND VPWR VPWR sky130_fd_sc_hd__decap_8
XFILLER_27_204 VGND VGND VPWR VPWR sky130_fd_sc_hd__fill_1
XFILLER_8_171 VGND VGND VPWR VPWR sky130_fd_sc_hd__decap_6
X_414_ _493_/C _414_/B VGND VGND VPWR VPWR _424_/B sky130_fd_sc_hd__nor2_4
X_345_ _425_/B _407_/B _345_/C _345_/D VGND VGND VPWR VPWR _345_/X sky130_fd_sc_hd__or4_4
X_276_ _548_/D VGND VGND VPWR VPWR _276_/Y sky130_fd_sc_hd__inv_2
XFILLER_5_130 VGND VGND VPWR VPWR sky130_fd_sc_hd__decap_12
XFILLER_23_87 VGND VGND VPWR VPWR sky130_fd_sc_hd__decap_8
X_259_ _395_/C VGND VGND VPWR VPWR _259_/Y sky130_fd_sc_hd__inv_2
XFILLER_0_58 VGND VGND VPWR VPWR sky130_fd_sc_hd__decap_4
X_328_ _327_/X VGND VGND VPWR VPWR _331_/A sky130_fd_sc_hd__inv_2
XFILLER_9_34 VGND VGND VPWR VPWR sky130_fd_sc_hd__decap_3
XFILLER_9_45 VGND VGND VPWR VPWR sky130_fd_sc_hd__fill_1
XFILLER_9_56 VGND VGND VPWR VPWR sky130_fd_sc_hd__decap_4
XFILLER_34_97 VGND VGND VPWR VPWR sky130_fd_sc_hd__decap_4
XFILLER_34_75 VGND VGND VPWR VPWR sky130_fd_sc_hd__decap_8
XFILLER_18_32 VGND VGND VPWR VPWR sky130_fd_sc_hd__decap_4
XFILLER_29_53 VGND VGND VPWR VPWR sky130_fd_sc_hd__decap_8
XFILLER_20_55 VGND VGND VPWR VPWR sky130_fd_sc_hd__decap_6
XFILLER_20_44 VGND VGND VPWR VPWR sky130_fd_sc_hd__decap_4
Xringosc.dstage\[9\].id.delayenb1 ringosc.dstage\[9\].id.delaybuf0/X _514_/X VGND
+ VGND VPWR VPWR ringosc.dstage\[9\].id.delayen1/Z sky130_fd_sc_hd__einvn_4
Xringosc.dstage\[10\].id.delayenb1 ringosc.dstage\[10\].id.delaybuf0/X _515_/X VGND
+ VGND VPWR VPWR ringosc.dstage\[10\].id.delayen1/Z sky130_fd_sc_hd__einvn_4
XFILLER_6_24 VGND VGND VPWR VPWR sky130_fd_sc_hd__decap_6
XFILLER_34_198 VGND VGND VPWR VPWR sky130_fd_sc_hd__decap_6
XFILLER_34_187 VGND VGND VPWR VPWR sky130_fd_sc_hd__decap_8
XFILLER_25_198 VGND VGND VPWR VPWR sky130_fd_sc_hd__decap_6
XFILLER_25_187 VGND VGND VPWR VPWR sky130_fd_sc_hd__decap_4
XFILLER_25_176 VGND VGND VPWR VPWR sky130_fd_sc_hd__decap_6
XFILLER_25_132 VGND VGND VPWR VPWR sky130_fd_sc_hd__decap_6
XFILLER_25_121 VGND VGND VPWR VPWR sky130_fd_sc_hd__fill_1
XPHY_171 VGND VPWR sky130_fd_sc_hd__tapvpwrvgnd_1
XFILLER_31_135 VGND VGND VPWR VPWR sky130_fd_sc_hd__decap_8
XPHY_160 VGND VPWR sky130_fd_sc_hd__tapvpwrvgnd_1
XFILLER_16_198 VGND VGND VPWR VPWR sky130_fd_sc_hd__decap_6
XFILLER_16_154 VGND VGND VPWR VPWR sky130_fd_sc_hd__decap_3
XFILLER_16_132 VGND VGND VPWR VPWR sky130_fd_sc_hd__fill_2
XFILLER_26_87 VGND VGND VPWR VPWR sky130_fd_sc_hd__decap_4
X_361_ _425_/B _332_/A _411_/B _332_/Y VGND VGND VPWR VPWR _374_/B sky130_fd_sc_hd__o22a_4
X_430_ _499_/A _429_/X VGND VGND VPWR VPWR _430_/X sky130_fd_sc_hd__or2_4
XFILLER_13_179 VGND VGND VPWR VPWR sky130_fd_sc_hd__decap_4
XFILLER_13_146 VGND VGND VPWR VPWR sky130_fd_sc_hd__decap_4
X_292_ _309_/A _400_/C _566_/Q _400_/C VGND VGND VPWR VPWR _292_/X sky130_fd_sc_hd__a2bb2o_4
X_559_ _545_/A _373_/X _530_/X VGND VGND VPWR VPWR _559_/Q sky130_fd_sc_hd__dfrtp_4
X_413_ _559_/Q _425_/B _335_/A _333_/X _490_/D VGND VGND VPWR VPWR _414_/B sky130_fd_sc_hd__o32a_4
X_344_ _411_/A _332_/Y VGND VGND VPWR VPWR _344_/X sky130_fd_sc_hd__or2_4
XFILLER_5_142 VGND VGND VPWR VPWR sky130_fd_sc_hd__fill_1
X_275_ _384_/A VGND VGND VPWR VPWR _345_/D sky130_fd_sc_hd__inv_2
Xringosc.dstage\[4\].id.delayen0 ringosc.dstage\[4\].id.delayen0/A _437_/X VGND VGND
+ VPWR VPWR ringosc.dstage\[4\].id.delayen0/Z sky130_fd_sc_hd__einvp_2
XFILLER_2_145 VGND VGND VPWR VPWR sky130_fd_sc_hd__decap_8
XFILLER_0_15 VGND VGND VPWR VPWR sky130_fd_sc_hd__decap_12
XFILLER_3_3 VGND VGND VPWR VPWR sky130_fd_sc_hd__decap_12
X_327_ _306_/X _320_/X _339_/C _326_/X VGND VGND VPWR VPWR _327_/X sky130_fd_sc_hd__a211o_4
XFILLER_34_32 VGND VGND VPWR VPWR sky130_fd_sc_hd__decap_8
XFILLER_18_88 VGND VGND VPWR VPWR sky130_fd_sc_hd__decap_4
XFILLER_18_44 VGND VGND VPWR VPWR sky130_fd_sc_hd__fill_1
XFILLER_7_204 VGND VGND VPWR VPWR sky130_fd_sc_hd__fill_1
XFILLER_29_108 VGND VGND VPWR VPWR sky130_fd_sc_hd__decap_12
XFILLER_28_185 VGND VGND VPWR VPWR sky130_fd_sc_hd__decap_4
XFILLER_6_36 VGND VGND VPWR VPWR sky130_fd_sc_hd__decap_8
XFILLER_31_55 VGND VGND VPWR VPWR sky130_fd_sc_hd__decap_6
XFILLER_31_33 VGND VGND VPWR VPWR sky130_fd_sc_hd__fill_1
XFILLER_25_100 VGND VGND VPWR VPWR sky130_fd_sc_hd__decap_4
XFILLER_16_144 VGND VGND VPWR VPWR sky130_fd_sc_hd__decap_8
XPHY_172 VGND VPWR sky130_fd_sc_hd__tapvpwrvgnd_1
Xringosc.dstage\[9\].id.delaybuf0 ringosc.dstage\[8\].id.delayen0/Z VGND VGND VPWR
+ VPWR ringosc.dstage\[9\].id.delaybuf0/X sky130_fd_sc_hd__clkbuf_2
Xringosc.dstage\[5\].id.delayenb0 ringosc.dstage\[5\].id.delaybuf1/A _438_/X VGND
+ VGND VPWR VPWR ringosc.ibufp10/A sky130_fd_sc_hd__einvn_8
XPHY_161 VGND VPWR sky130_fd_sc_hd__tapvpwrvgnd_1
XPHY_150 VGND VPWR sky130_fd_sc_hd__tapvpwrvgnd_1
Xringosc.dstage\[10\].id.delaybuf0 ringosc.dstage\[9\].id.delayen0/Z VGND VGND VPWR
+ VPWR ringosc.dstage\[10\].id.delaybuf0/X sky130_fd_sc_hd__clkbuf_2
XFILLER_26_55 VGND VGND VPWR VPWR sky130_fd_sc_hd__decap_8
XFILLER_26_44 VGND VGND VPWR VPWR sky130_fd_sc_hd__decap_4
XFILLER_22_169 VGND VGND VPWR VPWR sky130_fd_sc_hd__fill_1
X_360_ _354_/Y _415_/D _377_/A _332_/Y _335_/A VGND VGND VPWR VPWR _374_/A sky130_fd_sc_hd__a32o_4
X_291_ _261_/Y _400_/C _567_/Q _400_/C VGND VGND VPWR VPWR _291_/X sky130_fd_sc_hd__a2bb2o_4
X_558_ _545_/A _375_/X _531_/X VGND VGND VPWR VPWR _411_/B sky130_fd_sc_hd__dfrtp_4
X_489_ _489_/A _489_/B VGND VGND VPWR VPWR _494_/D sky130_fd_sc_hd__or2_4
XFILLER_12_68 VGND VGND VPWR VPWR sky130_fd_sc_hd__decap_12
XFILLER_12_57 VGND VGND VPWR VPWR sky130_fd_sc_hd__decap_4
XFILLER_12_24 VGND VGND VPWR VPWR sky130_fd_sc_hd__decap_6
X_412_ _423_/B _411_/X VGND VGND VPWR VPWR _419_/A sky130_fd_sc_hd__or2_4
XFILLER_5_198 VGND VGND VPWR VPWR sky130_fd_sc_hd__decap_6
X_274_ _555_/Q VGND VGND VPWR VPWR _345_/C sky130_fd_sc_hd__inv_2
X_343_ _340_/Y _342_/Y _343_/C VGND VGND VPWR VPWR _348_/A sky130_fd_sc_hd__or3_4
XFILLER_4_91 VGND VGND VPWR VPWR sky130_fd_sc_hd__fill_1
Xringosc.dstage\[4\].id.delayen1 ringosc.dstage\[4\].id.delayen1/A _497_/Y VGND VGND
+ VPWR VPWR ringosc.dstage\[4\].id.delayen1/Z sky130_fd_sc_hd__einvp_2
XFILLER_23_23 VGND VGND VPWR VPWR sky130_fd_sc_hd__decap_4
XFILLER_2_102 VGND VGND VPWR VPWR sky130_fd_sc_hd__fill_1
XFILLER_0_27 VGND VGND VPWR VPWR sky130_fd_sc_hd__decap_4
X_326_ _317_/Y _326_/B VGND VGND VPWR VPWR _326_/X sky130_fd_sc_hd__and2_4
XFILLER_9_14 VGND VGND VPWR VPWR sky130_fd_sc_hd__decap_12
XFILLER_34_44 VGND VGND VPWR VPWR sky130_fd_sc_hd__decap_4
XFILLER_20_201 VGND VGND VPWR VPWR sky130_fd_sc_hd__decap_4
XFILLER_18_78 VGND VGND VPWR VPWR sky130_fd_sc_hd__fill_1
XFILLER_11_201 VGND VGND VPWR VPWR sky130_fd_sc_hd__decap_4
X_309_ _309_/A _309_/B VGND VGND VPWR VPWR _309_/X sky130_fd_sc_hd__and2_4
XFILLER_20_13 VGND VGND VPWR VPWR sky130_fd_sc_hd__decap_12
XFILLER_34_156 VGND VGND VPWR VPWR sky130_fd_sc_hd__decap_8
XFILLER_34_123 VGND VGND VPWR VPWR sky130_fd_sc_hd__fill_1
Xringosc.dstage\[5\].id.delayenb1 ringosc.dstage\[5\].id.delaybuf1/A _500_/X VGND
+ VGND VPWR VPWR ringosc.dstage\[5\].id.delayen1/Z sky130_fd_sc_hd__einvn_4
XPHY_173 VGND VPWR sky130_fd_sc_hd__tapvpwrvgnd_1
XPHY_162 VGND VPWR sky130_fd_sc_hd__tapvpwrvgnd_1
XPHY_151 VGND VPWR sky130_fd_sc_hd__tapvpwrvgnd_1
Xringosc.dstage\[9\].id.delaybuf1 ringosc.dstage\[9\].id.delaybuf0/X VGND VGND VPWR
+ VPWR ringosc.dstage\[9\].id.delayen1/A sky130_fd_sc_hd__clkbuf_1
XPHY_140 VGND VPWR sky130_fd_sc_hd__tapvpwrvgnd_1
XFILLER_16_178 VGND VGND VPWR VPWR sky130_fd_sc_hd__decap_4
Xringosc.dstage\[10\].id.delaybuf1 ringosc.dstage\[10\].id.delaybuf0/X VGND VGND VPWR
+ VPWR ringosc.dstage\[10\].id.delayen1/A sky130_fd_sc_hd__clkbuf_1
XFILLER_11_3 VGND VGND VPWR VPWR sky130_fd_sc_hd__decap_8
XFILLER_22_148 VGND VGND VPWR VPWR sky130_fd_sc_hd__decap_4
XFILLER_22_137 VGND VGND VPWR VPWR sky130_fd_sc_hd__decap_4
X_488_ _488_/A VGND VGND VPWR VPWR _488_/Y sky130_fd_sc_hd__inv_2
XFILLER_13_137 VGND VGND VPWR VPWR sky130_fd_sc_hd__decap_4
X_290_ enable resetb _278_/Y VGND VGND VPWR VPWR _531_/A sky130_fd_sc_hd__and3_4
X_557_ _545_/A _381_/X _532_/X VGND VGND VPWR VPWR _334_/A sky130_fd_sc_hd__dfrtp_4
XFILLER_3_49 VGND VGND VPWR VPWR sky130_fd_sc_hd__decap_12
X_411_ _411_/A _411_/B _425_/C _411_/D VGND VGND VPWR VPWR _411_/X sky130_fd_sc_hd__and4_4
X_273_ _357_/B VGND VGND VPWR VPWR _407_/B sky130_fd_sc_hd__inv_2
XFILLER_12_47 VGND VGND VPWR VPWR sky130_fd_sc_hd__fill_1
X_342_ _341_/X VGND VGND VPWR VPWR _342_/Y sky130_fd_sc_hd__inv_2
XFILLER_23_79 VGND VGND VPWR VPWR sky130_fd_sc_hd__fill_1
XFILLER_23_57 VGND VGND VPWR VPWR sky130_fd_sc_hd__decap_4
XFILLER_13_90 VGND VGND VPWR VPWR sky130_fd_sc_hd__decap_6
X_325_ div[4] _324_/X VGND VGND VPWR VPWR _339_/C sky130_fd_sc_hd__and2_4
XFILLER_9_26 VGND VGND VPWR VPWR sky130_fd_sc_hd__decap_8
XFILLER_34_89 VGND VGND VPWR VPWR sky130_fd_sc_hd__decap_4
X_308_ _390_/A _567_/Q _307_/X VGND VGND VPWR VPWR _308_/X sky130_fd_sc_hd__a21o_4
XFILLER_28_132 VGND VGND VPWR VPWR sky130_fd_sc_hd__decap_6
XFILLER_28_121 VGND VGND VPWR VPWR sky130_fd_sc_hd__decap_4
XFILLER_20_69 VGND VGND VPWR VPWR sky130_fd_sc_hd__decap_4
XFILLER_20_25 VGND VGND VPWR VPWR sky130_fd_sc_hd__decap_6
XFILLER_34_168 VGND VGND VPWR VPWR sky130_fd_sc_hd__decap_12
XFILLER_10_91 VGND VGND VPWR VPWR sky130_fd_sc_hd__fill_1
XFILLER_31_68 VGND VGND VPWR VPWR sky130_fd_sc_hd__decap_4
XFILLER_25_113 VGND VGND VPWR VPWR sky130_fd_sc_hd__decap_8
XPHY_174 VGND VPWR sky130_fd_sc_hd__tapvpwrvgnd_1
XFILLER_31_127 VGND VGND VPWR VPWR sky130_fd_sc_hd__fill_1
XPHY_163 VGND VPWR sky130_fd_sc_hd__tapvpwrvgnd_1
XPHY_152 VGND VPWR sky130_fd_sc_hd__tapvpwrvgnd_1
XPHY_141 VGND VPWR sky130_fd_sc_hd__tapvpwrvgnd_1
XPHY_130 VGND VPWR sky130_fd_sc_hd__tapvpwrvgnd_1
XFILLER_16_168 VGND VGND VPWR VPWR sky130_fd_sc_hd__decap_6
XFILLER_16_124 VGND VGND VPWR VPWR sky130_fd_sc_hd__decap_8
XFILLER_16_102 VGND VGND VPWR VPWR sky130_fd_sc_hd__decap_8
XFILLER_7_81 VGND VGND VPWR VPWR sky130_fd_sc_hd__decap_4
XFILLER_7_92 VGND VGND VPWR VPWR sky130_fd_sc_hd__decap_4
XFILLER_21_182 VGND VGND VPWR VPWR sky130_fd_sc_hd__fill_1
XFILLER_9_109 VGND VGND VPWR VPWR sky130_fd_sc_hd__decap_4
Xringosc.dstage\[5\].id.delaybuf0 ringosc.dstage\[4\].id.delayen0/Z VGND VGND VPWR
+ VPWR ringosc.dstage\[5\].id.delaybuf1/A sky130_fd_sc_hd__clkbuf_2
X_487_ _278_/Y _284_/Y _483_/X _486_/X VGND VGND VPWR VPWR _488_/A sky130_fd_sc_hd__o22a_4
X_556_ _545_/A _556_/D _533_/X VGND VGND VPWR VPWR _357_/B sky130_fd_sc_hd__dfrtp_4
X_410_ _411_/A _411_/B _425_/C _425_/D VGND VGND VPWR VPWR _423_/B sky130_fd_sc_hd__and4_4
Xringosc.dstage\[1\].id.delayenb0 ringosc.dstage\[1\].id.delaybuf0/X _422_/Y VGND
+ VGND VPWR VPWR ringosc.dstage\[1\].id.delayen0/Z sky130_fd_sc_hd__einvn_8
X_272_ _334_/A VGND VGND VPWR VPWR _506_/D sky130_fd_sc_hd__inv_2
X_341_ _562_/Q _341_/B _341_/C _561_/Q VGND VGND VPWR VPWR _341_/X sky130_fd_sc_hd__and4_4
Xringosc.dstage\[8\].id.delayint0 ringosc.dstage\[8\].id.delayen1/Z VGND VGND VPWR
+ VPWR ringosc.dstage\[8\].id.delayen0/A sky130_fd_sc_hd__clkinv_1
XFILLER_32_200 VGND VGND VPWR VPWR sky130_fd_sc_hd__decap_4
X_539_ _531_/A VGND VGND VPWR VPWR _539_/X sky130_fd_sc_hd__buf_2
XFILLER_23_200 VGND VGND VPWR VPWR sky130_fd_sc_hd__decap_4
XFILLER_4_71 VGND VGND VPWR VPWR sky130_fd_sc_hd__fill_2
X_324_ _322_/X _323_/X _322_/X _323_/X VGND VGND VPWR VPWR _324_/X sky130_fd_sc_hd__a2bb2o_4
XFILLER_9_49 VGND VGND VPWR VPWR sky130_fd_sc_hd__decap_4
XFILLER_18_36 VGND VGND VPWR VPWR sky130_fd_sc_hd__fill_1
XFILLER_1_3 VGND VGND VPWR VPWR sky130_fd_sc_hd__decap_4
XFILLER_34_3 VGND VGND VPWR VPWR sky130_fd_sc_hd__decap_12
X_307_ _261_/Y _262_/Y VGND VGND VPWR VPWR _307_/X sky130_fd_sc_hd__and2_4
XFILLER_34_125 VGND VGND VPWR VPWR sky130_fd_sc_hd__fill_1
XFILLER_19_199 VGND VGND VPWR VPWR sky130_fd_sc_hd__decap_6
XFILLER_19_177 VGND VGND VPWR VPWR sky130_fd_sc_hd__decap_6
XFILLER_6_17 VGND VGND VPWR VPWR sky130_fd_sc_hd__decap_4
XFILLER_31_47 VGND VGND VPWR VPWR sky130_fd_sc_hd__fill_1
XFILLER_25_169 VGND VGND VPWR VPWR sky130_fd_sc_hd__decap_4
XFILLER_25_158 VGND VGND VPWR VPWR sky130_fd_sc_hd__decap_4
XFILLER_25_147 VGND VGND VPWR VPWR sky130_fd_sc_hd__decap_4
XFILLER_15_15 VGND VGND VPWR VPWR sky130_fd_sc_hd__decap_4
XPHY_175 VGND VPWR sky130_fd_sc_hd__tapvpwrvgnd_1
XPHY_164 VGND VPWR sky130_fd_sc_hd__tapvpwrvgnd_1
XPHY_153 VGND VPWR sky130_fd_sc_hd__tapvpwrvgnd_1
XPHY_142 VGND VPWR sky130_fd_sc_hd__tapvpwrvgnd_1
XFILLER_21_80 VGND VGND VPWR VPWR sky130_fd_sc_hd__decap_8
XPHY_131 VGND VPWR sky130_fd_sc_hd__tapvpwrvgnd_1
XPHY_120 VGND VPWR sky130_fd_sc_hd__tapvpwrvgnd_1
XPHY_0 VGND VGND VPWR VPWR sky130_fd_sc_hd__decap_3
XFILLER_26_14 VGND VGND VPWR VPWR sky130_fd_sc_hd__decap_4
XFILLER_13_106 VGND VGND VPWR VPWR sky130_fd_sc_hd__decap_12
XFILLER_32_90 VGND VGND VPWR VPWR sky130_fd_sc_hd__fill_2
X_486_ _499_/A _489_/B _495_/C _428_/X VGND VGND VPWR VPWR _486_/X sky130_fd_sc_hd__or4_4
XFILLER_16_91 VGND VGND VPWR VPWR sky130_fd_sc_hd__fill_1
XFILLER_12_161 VGND VGND VPWR VPWR sky130_fd_sc_hd__decap_6
XFILLER_8_154 VGND VGND VPWR VPWR sky130_fd_sc_hd__fill_1
X_555_ _545_/A _555_/D _534_/X VGND VGND VPWR VPWR _555_/Q sky130_fd_sc_hd__dfrtp_4
Xringosc.dstage\[5\].id.delaybuf1 ringosc.dstage\[5\].id.delaybuf1/A VGND VGND VPWR
+ VPWR ringosc.dstage\[5\].id.delayen1/A sky130_fd_sc_hd__clkbuf_1
Xringosc.dstage\[1\].id.delayenb1 ringosc.dstage\[1\].id.delaybuf0/X _476_/Y VGND
+ VGND VPWR VPWR ringosc.dstage\[1\].id.delayen1/Z sky130_fd_sc_hd__einvn_4
X_271_ _411_/B VGND VGND VPWR VPWR _425_/B sky130_fd_sc_hd__inv_2
X_340_ _339_/X VGND VGND VPWR VPWR _340_/Y sky130_fd_sc_hd__inv_2
X_538_ _531_/A VGND VGND VPWR VPWR _538_/X sky130_fd_sc_hd__buf_2
XFILLER_23_48 VGND VGND VPWR VPWR sky130_fd_sc_hd__decap_6
Xringosc.dstage\[1\].id.delayen0 ringosc.dstage\[1\].id.delayen0/A _422_/Y VGND VGND
+ VPWR VPWR ringosc.dstage\[1\].id.delayen0/Z sky130_fd_sc_hd__einvp_2
X_469_ _559_/Q _425_/B _425_/C _411_/D VGND VGND VPWR VPWR _469_/X sky130_fd_sc_hd__and4_4
XFILLER_14_201 VGND VGND VPWR VPWR sky130_fd_sc_hd__decap_4
X_323_ _261_/Y _262_/Y _307_/X _311_/X VGND VGND VPWR VPWR _323_/X sky130_fd_sc_hd__o22a_4
XFILLER_1_171 VGND VGND VPWR VPWR sky130_fd_sc_hd__decap_12
XFILLER_18_26 VGND VGND VPWR VPWR sky130_fd_sc_hd__decap_4
XFILLER_27_3 VGND VGND VPWR VPWR sky130_fd_sc_hd__decap_4
X_306_ _301_/X _305_/Y VGND VGND VPWR VPWR _306_/X sky130_fd_sc_hd__or2_4
XFILLER_28_145 VGND VGND VPWR VPWR sky130_fd_sc_hd__decap_8
XFILLER_1_62 VGND VGND VPWR VPWR sky130_fd_sc_hd__decap_4
XFILLER_19_156 VGND VGND VPWR VPWR sky130_fd_sc_hd__fill_2
XFILLER_19_123 VGND VGND VPWR VPWR sky130_fd_sc_hd__decap_3
XFILLER_19_80 VGND VGND VPWR VPWR sky130_fd_sc_hd__decap_8
XFILLER_10_93 VGND VGND VPWR VPWR sky130_fd_sc_hd__fill_1
XPHY_176 VGND VPWR sky130_fd_sc_hd__tapvpwrvgnd_1
XFILLER_31_15 VGND VGND VPWR VPWR sky130_fd_sc_hd__decap_12
XPHY_165 VGND VPWR sky130_fd_sc_hd__tapvpwrvgnd_1
XPHY_154 VGND VPWR sky130_fd_sc_hd__tapvpwrvgnd_1
XPHY_143 VGND VPWR sky130_fd_sc_hd__tapvpwrvgnd_1
XPHY_132 VGND VPWR sky130_fd_sc_hd__tapvpwrvgnd_1
XFILLER_16_137 VGND VGND VPWR VPWR sky130_fd_sc_hd__decap_4
XPHY_121 VGND VPWR sky130_fd_sc_hd__tapvpwrvgnd_1
XPHY_110 VGND VPWR sky130_fd_sc_hd__tapvpwrvgnd_1
XPHY_1 VGND VGND VPWR VPWR sky130_fd_sc_hd__decap_3
XFILLER_26_26 VGND VGND VPWR VPWR sky130_fd_sc_hd__decap_4
XFILLER_21_184 VGND VGND VPWR VPWR sky130_fd_sc_hd__decap_4
XFILLER_13_118 VGND VGND VPWR VPWR sky130_fd_sc_hd__decap_4
X_485_ _334_/A _450_/B VGND VGND VPWR VPWR _489_/B sky130_fd_sc_hd__and2_4
XFILLER_8_177 VGND VGND VPWR VPWR sky130_fd_sc_hd__fill_1
X_554_ _545_/A _554_/D _535_/X VGND VGND VPWR VPWR _384_/A sky130_fd_sc_hd__dfrtp_4
XFILLER_12_39 VGND VGND VPWR VPWR sky130_fd_sc_hd__decap_8
X_270_ _559_/Q VGND VGND VPWR VPWR _411_/A sky130_fd_sc_hd__inv_2
Xringosc.dstage\[1\].id.delayen1 ringosc.dstage\[1\].id.delayen1/A _476_/Y VGND VGND
+ VPWR VPWR ringosc.dstage\[1\].id.delayen1/Z sky130_fd_sc_hd__einvp_2
X_468_ _499_/B _467_/X VGND VGND VPWR VPWR _512_/C sky130_fd_sc_hd__or2_4
X_537_ _531_/A VGND VGND VPWR VPWR _537_/X sky130_fd_sc_hd__buf_2
X_399_ _550_/Q _389_/B VGND VGND VPWR VPWR _399_/X sky130_fd_sc_hd__or2_4
Xringosc.dstage\[1\].id.delaybuf0 ringosc.dstage\[0\].id.delayen0/Z VGND VGND VPWR
+ VPWR ringosc.dstage\[1\].id.delaybuf0/X sky130_fd_sc_hd__clkbuf_2
XFILLER_2_117 VGND VGND VPWR VPWR sky130_fd_sc_hd__decap_4
X_322_ _259_/Y _260_/Y _259_/Y _260_/Y VGND VGND VPWR VPWR _322_/X sky130_fd_sc_hd__a2bb2o_4
Xringosc.dstage\[4\].id.delayint0 ringosc.dstage\[4\].id.delayen1/Z VGND VGND VPWR
+ VPWR ringosc.dstage\[4\].id.delayen0/A sky130_fd_sc_hd__clkinv_1
XFILLER_34_59 VGND VGND VPWR VPWR sky130_fd_sc_hd__decap_3
XFILLER_34_15 VGND VGND VPWR VPWR sky130_fd_sc_hd__decap_12
X_305_ _304_/X VGND VGND VPWR VPWR _305_/Y sky130_fd_sc_hd__inv_2
XFILLER_29_26 VGND VGND VPWR VPWR sky130_fd_sc_hd__decap_4
XFILLER_1_30 VGND VGND VPWR VPWR sky130_fd_sc_hd__decap_4
XFILLER_10_61 VGND VGND VPWR VPWR sky130_fd_sc_hd__fill_1
XFILLER_34_105 VGND VGND VPWR VPWR sky130_fd_sc_hd__decap_4
XFILLER_19_135 VGND VGND VPWR VPWR sky130_fd_sc_hd__decap_4
XFILLER_33_182 VGND VGND VPWR VPWR sky130_fd_sc_hd__fill_1
XFILLER_31_27 VGND VGND VPWR VPWR sky130_fd_sc_hd__decap_6
Xringosc.dstage\[9\].id.delayen0 ringosc.dstage\[9\].id.delayen0/A _452_/Y VGND VGND
+ VPWR VPWR ringosc.dstage\[9\].id.delayen0/Z sky130_fd_sc_hd__einvp_2
XFILLER_15_39 VGND VGND VPWR VPWR sky130_fd_sc_hd__fill_1
XPHY_100 VGND VPWR sky130_fd_sc_hd__tapvpwrvgnd_1
XPHY_177 VGND VPWR sky130_fd_sc_hd__tapvpwrvgnd_1
XFILLER_31_119 VGND VGND VPWR VPWR sky130_fd_sc_hd__decap_3
XPHY_166 VGND VPWR sky130_fd_sc_hd__tapvpwrvgnd_1
XPHY_155 VGND VPWR sky130_fd_sc_hd__tapvpwrvgnd_1
XFILLER_24_193 VGND VGND VPWR VPWR sky130_fd_sc_hd__decap_4
XPHY_144 VGND VPWR sky130_fd_sc_hd__tapvpwrvgnd_1
XPHY_133 VGND VPWR sky130_fd_sc_hd__tapvpwrvgnd_1
XPHY_122 VGND VPWR sky130_fd_sc_hd__tapvpwrvgnd_1
XPHY_111 VGND VPWR sky130_fd_sc_hd__tapvpwrvgnd_1
XPHY_2 VGND VGND VPWR VPWR sky130_fd_sc_hd__decap_3
XFILLER_30_152 VGND VGND VPWR VPWR sky130_fd_sc_hd__fill_1
XFILLER_21_174 VGND VGND VPWR VPWR sky130_fd_sc_hd__decap_8
XFILLER_21_163 VGND VGND VPWR VPWR sky130_fd_sc_hd__decap_4
XFILLER_21_152 VGND VGND VPWR VPWR sky130_fd_sc_hd__decap_4
XFILLER_7_51 VGND VGND VPWR VPWR sky130_fd_sc_hd__decap_8
X_484_ _436_/X _464_/B VGND VGND VPWR VPWR _495_/C sky130_fd_sc_hd__or2_4
XFILLER_12_152 VGND VGND VPWR VPWR sky130_fd_sc_hd__fill_1
X_553_ _545_/A _391_/X _536_/X VGND VGND VPWR VPWR _395_/C sky130_fd_sc_hd__dfrtp_4
XFILLER_8_145 VGND VGND VPWR VPWR sky130_fd_sc_hd__decap_8
X_467_ _411_/A _411_/B _493_/C _506_/D VGND VGND VPWR VPWR _467_/X sky130_fd_sc_hd__and4_4
X_536_ _531_/A VGND VGND VPWR VPWR _536_/X sky130_fd_sc_hd__buf_2
XFILLER_4_41 VGND VGND VPWR VPWR sky130_fd_sc_hd__decap_8
XFILLER_4_63 VGND VGND VPWR VPWR sky130_fd_sc_hd__decap_8
XFILLER_4_192 VGND VGND VPWR VPWR sky130_fd_sc_hd__decap_4
X_398_ _401_/A _398_/B VGND VGND VPWR VPWR _398_/X sky130_fd_sc_hd__or2_4
Xringosc.dstage\[1\].id.delaybuf1 ringosc.dstage\[1\].id.delaybuf0/X VGND VGND VPWR
+ VPWR ringosc.dstage\[1\].id.delayen1/A sky130_fd_sc_hd__clkbuf_1
XFILLER_13_72 VGND VGND VPWR VPWR sky130_fd_sc_hd__decap_4
X_321_ _320_/X VGND VGND VPWR VPWR _339_/A sky130_fd_sc_hd__inv_2
XFILLER_34_27 VGND VGND VPWR VPWR sky130_fd_sc_hd__decap_4
X_519_ dco ext_trim[24] _518_/X VGND VGND VPWR VPWR _519_/X sky130_fd_sc_hd__a21bo_4
X_304_ _277_/Y _303_/X _301_/X _302_/Y VGND VGND VPWR VPWR _304_/X sky130_fd_sc_hd__a211o_4
XFILLER_34_117 VGND VGND VPWR VPWR sky130_fd_sc_hd__decap_6
XFILLER_32_3 VGND VGND VPWR VPWR sky130_fd_sc_hd__decap_4
XFILLER_19_169 VGND VGND VPWR VPWR sky130_fd_sc_hd__decap_4
Xringosc.dstage\[9\].id.delayen1 ringosc.dstage\[9\].id.delayen1/A _514_/X VGND VGND
+ VPWR VPWR ringosc.dstage\[9\].id.delayen1/Z sky130_fd_sc_hd__einvp_2
XPHY_178 VGND VPWR sky130_fd_sc_hd__tapvpwrvgnd_1
XPHY_167 VGND VPWR sky130_fd_sc_hd__tapvpwrvgnd_1
XPHY_156 VGND VPWR sky130_fd_sc_hd__tapvpwrvgnd_1
XPHY_145 VGND VPWR sky130_fd_sc_hd__tapvpwrvgnd_1
XPHY_134 VGND VPWR sky130_fd_sc_hd__tapvpwrvgnd_1
XPHY_123 VGND VPWR sky130_fd_sc_hd__tapvpwrvgnd_1
XPHY_112 VGND VPWR sky130_fd_sc_hd__tapvpwrvgnd_1
XPHY_101 VGND VPWR sky130_fd_sc_hd__tapvpwrvgnd_1
XFILLER_22_109 VGND VGND VPWR VPWR sky130_fd_sc_hd__decap_12
XPHY_3 VGND VGND VPWR VPWR sky130_fd_sc_hd__decap_3
XFILLER_7_74 VGND VGND VPWR VPWR sky130_fd_sc_hd__decap_4
X_483_ _424_/X _501_/B VGND VGND VPWR VPWR _483_/X sky130_fd_sc_hd__or2_4
XFILLER_16_72 VGND VGND VPWR VPWR sky130_fd_sc_hd__decap_6
XFILLER_16_61 VGND VGND VPWR VPWR sky130_fd_sc_hd__decap_4
X_552_ _545_/A _552_/D _537_/X VGND VGND VPWR VPWR _390_/A sky130_fd_sc_hd__dfrtp_4
XFILLER_32_93 VGND VGND VPWR VPWR sky130_fd_sc_hd__fill_1
XFILLER_32_82 VGND VGND VPWR VPWR sky130_fd_sc_hd__decap_8
XFILLER_12_186 VGND VGND VPWR VPWR sky130_fd_sc_hd__decap_4
XFILLER_32_204 VGND VGND VPWR VPWR sky130_fd_sc_hd__fill_1
XFILLER_27_71 VGND VGND VPWR VPWR sky130_fd_sc_hd__decap_4
XFILLER_27_60 VGND VGND VPWR VPWR sky130_fd_sc_hd__fill_1
X_466_ _411_/A _425_/B _493_/C _334_/A VGND VGND VPWR VPWR _499_/B sky130_fd_sc_hd__and4_4
X_535_ _531_/A VGND VGND VPWR VPWR _535_/X sky130_fd_sc_hd__buf_2
X_397_ _396_/X VGND VGND VPWR VPWR _398_/B sky130_fd_sc_hd__inv_2
XFILLER_23_204 VGND VGND VPWR VPWR sky130_fd_sc_hd__fill_1
XFILLER_13_62 VGND VGND VPWR VPWR sky130_fd_sc_hd__decap_6
XFILLER_1_163 VGND VGND VPWR VPWR sky130_fd_sc_hd__decap_4