* NGSPICE file created from mgmt_protect.ext - technology: sky130A

* Black-box entry subcircuit for sky130_fd_sc_hd__decap_4 abstract view
.subckt sky130_fd_sc_hd__decap_4 VGND VNB VPB VPWR
.ends

* Black-box entry subcircuit for sky130_fd_sc_hd__fill_2 abstract view
.subckt sky130_fd_sc_hd__fill_2 VGND VNB VPB VPWR
.ends

* Black-box entry subcircuit for sky130_fd_sc_hd__fill_1 abstract view
.subckt sky130_fd_sc_hd__fill_1 VGND VNB VPB VPWR
.ends

* Black-box entry subcircuit for sky130_fd_sc_hd__decap_12 abstract view
.subckt sky130_fd_sc_hd__decap_12 VGND VNB VPB VPWR
.ends

* Black-box entry subcircuit for sky130_fd_sc_hd__decap_6 abstract view
.subckt sky130_fd_sc_hd__decap_6 VGND VNB VPB VPWR
.ends

* Black-box entry subcircuit for sky130_fd_sc_hd__diode_2 abstract view
.subckt sky130_fd_sc_hd__diode_2 DIODE VGND VNB VPB VPWR
.ends

* Black-box entry subcircuit for sky130_fd_sc_hd__decap_3 abstract view
.subckt sky130_fd_sc_hd__decap_3 VGND VNB VPB VPWR
.ends

* Black-box entry subcircuit for sky130_fd_sc_hd__decap_8 abstract view
.subckt sky130_fd_sc_hd__decap_8 VGND VNB VPB VPWR
.ends

* Black-box entry subcircuit for sky130_fd_sc_hd__conb_1 abstract view
.subckt sky130_fd_sc_hd__conb_1 VGND VNB VPB VPWR HI LO
.ends

* Black-box entry subcircuit for sky130_fd_sc_hd__inv_2 abstract view
.subckt sky130_fd_sc_hd__inv_2 A VGND VNB VPB VPWR Y
.ends

* Black-box entry subcircuit for sky130_fd_sc_hd__einvp_8 abstract view
.subckt sky130_fd_sc_hd__einvp_8 A TE VGND VNB VPB VPWR Z
.ends

* Black-box entry subcircuit for sky130_fd_sc_hd__nand2_4 abstract view
.subckt sky130_fd_sc_hd__nand2_4 A B VGND VNB VPB VPWR Y
.ends

* Black-box entry subcircuit for sky130_fd_sc_hd__tapvpwrvgnd_1 abstract view
.subckt sky130_fd_sc_hd__tapvpwrvgnd_1 VGND VPWR
.ends

* Black-box entry subcircuit for sky130_fd_sc_hd__inv_8 abstract view
.subckt sky130_fd_sc_hd__inv_8 A VGND VNB VPB VPWR Y
.ends

* Black-box entry subcircuit for sky130_fd_sc_hd__buf_8 abstract view
.subckt sky130_fd_sc_hd__buf_8 A VGND VNB VPB VPWR X
.ends

* Black-box entry subcircuit for mgmt_protect_hv abstract view
.subckt mgmt_protect_hv mprj2_vdd_logic1 mprj_vdd_logic1 VPWR VGND
.ends

.subckt mgmt_protect caravel_clk caravel_clk2 caravel_rstn la_data_in_core[0] la_data_in_core[100]
+ la_data_in_core[101] la_data_in_core[102] la_data_in_core[103] la_data_in_core[104]
+ la_data_in_core[105] la_data_in_core[106] la_data_in_core[107] la_data_in_core[108]
+ la_data_in_core[109] la_data_in_core[10] la_data_in_core[110] la_data_in_core[111]
+ la_data_in_core[112] la_data_in_core[113] la_data_in_core[114] la_data_in_core[115]
+ la_data_in_core[116] la_data_in_core[117] la_data_in_core[118] la_data_in_core[119]
+ la_data_in_core[11] la_data_in_core[120] la_data_in_core[121] la_data_in_core[122]
+ la_data_in_core[123] la_data_in_core[124] la_data_in_core[125] la_data_in_core[126]
+ la_data_in_core[127] la_data_in_core[12] la_data_in_core[13] la_data_in_core[14]
+ la_data_in_core[15] la_data_in_core[16] la_data_in_core[17] la_data_in_core[18]
+ la_data_in_core[19] la_data_in_core[1] la_data_in_core[20] la_data_in_core[21] la_data_in_core[22]
+ la_data_in_core[23] la_data_in_core[24] la_data_in_core[25] la_data_in_core[26]
+ la_data_in_core[27] la_data_in_core[28] la_data_in_core[29] la_data_in_core[2] la_data_in_core[30]
+ la_data_in_core[31] la_data_in_core[32] la_data_in_core[33] la_data_in_core[34]
+ la_data_in_core[35] la_data_in_core[36] la_data_in_core[37] la_data_in_core[38]
+ la_data_in_core[39] la_data_in_core[3] la_data_in_core[40] la_data_in_core[41] la_data_in_core[42]
+ la_data_in_core[43] la_data_in_core[44] la_data_in_core[45] la_data_in_core[46]
+ la_data_in_core[47] la_data_in_core[48] la_data_in_core[49] la_data_in_core[4] la_data_in_core[50]
+ la_data_in_core[51] la_data_in_core[52] la_data_in_core[53] la_data_in_core[54]
+ la_data_in_core[55] la_data_in_core[56] la_data_in_core[57] la_data_in_core[58]
+ la_data_in_core[59] la_data_in_core[5] la_data_in_core[60] la_data_in_core[61] la_data_in_core[62]
+ la_data_in_core[63] la_data_in_core[64] la_data_in_core[65] la_data_in_core[66]
+ la_data_in_core[67] la_data_in_core[68] la_data_in_core[69] la_data_in_core[6] la_data_in_core[70]
+ la_data_in_core[71] la_data_in_core[72] la_data_in_core[73] la_data_in_core[74]
+ la_data_in_core[75] la_data_in_core[76] la_data_in_core[77] la_data_in_core[78]
+ la_data_in_core[79] la_data_in_core[7] la_data_in_core[80] la_data_in_core[81] la_data_in_core[82]
+ la_data_in_core[83] la_data_in_core[84] la_data_in_core[85] la_data_in_core[86]
+ la_data_in_core[87] la_data_in_core[88] la_data_in_core[89] la_data_in_core[8] la_data_in_core[90]
+ la_data_in_core[91] la_data_in_core[92] la_data_in_core[93] la_data_in_core[94]
+ la_data_in_core[95] la_data_in_core[96] la_data_in_core[97] la_data_in_core[98]
+ la_data_in_core[99] la_data_in_core[9] la_data_in_mprj[0] la_data_in_mprj[100] la_data_in_mprj[101]
+ la_data_in_mprj[102] la_data_in_mprj[103] la_data_in_mprj[104] la_data_in_mprj[105]
+ la_data_in_mprj[106] la_data_in_mprj[107] la_data_in_mprj[108] la_data_in_mprj[109]
+ la_data_in_mprj[10] la_data_in_mprj[110] la_data_in_mprj[111] la_data_in_mprj[112]
+ la_data_in_mprj[113] la_data_in_mprj[114] la_data_in_mprj[115] la_data_in_mprj[116]
+ la_data_in_mprj[117] la_data_in_mprj[118] la_data_in_mprj[119] la_data_in_mprj[11]
+ la_data_in_mprj[120] la_data_in_mprj[121] la_data_in_mprj[122] la_data_in_mprj[123]
+ la_data_in_mprj[124] la_data_in_mprj[125] la_data_in_mprj[126] la_data_in_mprj[127]
+ la_data_in_mprj[12] la_data_in_mprj[13] la_data_in_mprj[14] la_data_in_mprj[15]
+ la_data_in_mprj[16] la_data_in_mprj[17] la_data_in_mprj[18] la_data_in_mprj[1] la_data_in_mprj[20]
+ la_data_in_mprj[21] la_data_in_mprj[22] la_data_in_mprj[23] la_data_in_mprj[24]
+ la_data_in_mprj[25] la_data_in_mprj[26] la_data_in_mprj[27] la_data_in_mprj[28]
+ la_data_in_mprj[29] la_data_in_mprj[2] la_data_in_mprj[30] la_data_in_mprj[31] la_data_in_mprj[32]
+ la_data_in_mprj[33] la_data_in_mprj[34] la_data_in_mprj[35] la_data_in_mprj[36]
+ la_data_in_mprj[37] la_data_in_mprj[38] la_data_in_mprj[39] la_data_in_mprj[3] la_data_in_mprj[40]
+ la_data_in_mprj[41] la_data_in_mprj[42] la_data_in_mprj[43] la_data_in_mprj[44]
+ la_data_in_mprj[45] la_data_in_mprj[46] la_data_in_mprj[47] la_data_in_mprj[48]
+ la_data_in_mprj[49] la_data_in_mprj[4] la_data_in_mprj[50] la_data_in_mprj[51] la_data_in_mprj[52]
+ la_data_in_mprj[53] la_data_in_mprj[54] la_data_in_mprj[55] la_data_in_mprj[56]
+ la_data_in_mprj[57] la_data_in_mprj[58] la_data_in_mprj[59] la_data_in_mprj[5] la_data_in_mprj[60]
+ la_data_in_mprj[61] la_data_in_mprj[62] la_data_in_mprj[63] la_data_in_mprj[64]
+ la_data_in_mprj[65] la_data_in_mprj[66] la_data_in_mprj[67] la_data_in_mprj[68]
+ la_data_in_mprj[69] la_data_in_mprj[6] la_data_in_mprj[70] la_data_in_mprj[71] la_data_in_mprj[72]
+ la_data_in_mprj[73] la_data_in_mprj[74] la_data_in_mprj[75] la_data_in_mprj[76]
+ la_data_in_mprj[77] la_data_in_mprj[78] la_data_in_mprj[79] la_data_in_mprj[7] la_data_in_mprj[80]
+ la_data_in_mprj[81] la_data_in_mprj[82] la_data_in_mprj[83] la_data_in_mprj[84]
+ la_data_in_mprj[85] la_data_in_mprj[86] la_data_in_mprj[87] la_data_in_mprj[88]
+ la_data_in_mprj[89] la_data_in_mprj[8] la_data_in_mprj[90] la_data_in_mprj[91] la_data_in_mprj[92]
+ la_data_in_mprj[93] la_data_in_mprj[94] la_data_in_mprj[95] la_data_in_mprj[96]
+ la_data_in_mprj[97] la_data_in_mprj[98] la_data_in_mprj[99] la_data_in_mprj[9] la_data_out_core[0]
+ la_data_out_core[100] la_data_out_core[101] la_data_out_core[102] la_data_out_core[103]
+ la_data_out_core[104] la_data_out_core[105] la_data_out_core[106] la_data_out_core[107]
+ la_data_out_core[108] la_data_out_core[109] la_data_out_core[10] la_data_out_core[110]
+ la_data_out_core[111] la_data_out_core[112] la_data_out_core[113] la_data_out_core[114]
+ la_data_out_core[115] la_data_out_core[116] la_data_out_core[117] la_data_out_core[118]
+ la_data_out_core[119] la_data_out_core[11] la_data_out_core[120] la_data_out_core[121]
+ la_data_out_core[122] la_data_out_core[123] la_data_out_core[124] la_data_out_core[125]
+ la_data_out_core[126] la_data_out_core[127] la_data_out_core[12] la_data_out_core[13]
+ la_data_out_core[14] la_data_out_core[15] la_data_out_core[16] la_data_out_core[17]
+ la_data_out_core[18] la_data_out_core[19] la_data_out_core[1] la_data_out_core[20]
+ la_data_out_core[21] la_data_out_core[22] la_data_out_core[23] la_data_out_core[24]
+ la_data_out_core[25] la_data_out_core[26] la_data_out_core[27] la_data_out_core[28]
+ la_data_out_core[29] la_data_out_core[2] la_data_out_core[30] la_data_out_core[31]
+ la_data_out_core[32] la_data_out_core[33] la_data_out_core[34] la_data_out_core[35]
+ la_data_out_core[36] la_data_out_core[37] la_data_out_core[38] la_data_out_core[39]
+ la_data_out_core[3] la_data_out_core[40] la_data_out_core[41] la_data_out_core[42]
+ la_data_out_core[43] la_data_out_core[44] la_data_out_core[45] la_data_out_core[46]
+ la_data_out_core[47] la_data_out_core[48] la_data_out_core[49] la_data_out_core[4]
+ la_data_out_core[50] la_data_out_core[51] la_data_out_core[52] la_data_out_core[53]
+ la_data_out_core[54] la_data_out_core[55] la_data_out_core[56] la_data_out_core[57]
+ la_data_out_core[58] la_data_out_core[59] la_data_out_core[5] la_data_out_core[60]
+ la_data_out_core[61] la_data_out_core[62] la_data_out_core[63] la_data_out_core[64]
+ la_data_out_core[65] la_data_out_core[66] la_data_out_core[67] la_data_out_core[68]
+ la_data_out_core[69] la_data_out_core[6] la_data_out_core[70] la_data_out_core[71]
+ la_data_out_core[72] la_data_out_core[73] la_data_out_core[74] la_data_out_core[75]
+ la_data_out_core[76] la_data_out_core[77] la_data_out_core[78] la_data_out_core[79]
+ la_data_out_core[7] la_data_out_core[80] la_data_out_core[81] la_data_out_core[82]
+ la_data_out_core[83] la_data_out_core[84] la_data_out_core[85] la_data_out_core[86]
+ la_data_out_core[87] la_data_out_core[88] la_data_out_core[89] la_data_out_core[8]
+ la_data_out_core[90] la_data_out_core[91] la_data_out_core[92] la_data_out_core[93]
+ la_data_out_core[94] la_data_out_core[95] la_data_out_core[96] la_data_out_core[97]
+ la_data_out_core[98] la_data_out_core[99] la_data_out_core[9] la_data_out_mprj[0]
+ la_data_out_mprj[100] la_data_out_mprj[101] la_data_out_mprj[102] la_data_out_mprj[103]
+ la_data_out_mprj[104] la_data_out_mprj[105] la_data_out_mprj[106] la_data_out_mprj[107]
+ la_data_out_mprj[108] la_data_out_mprj[109] la_data_out_mprj[10] la_data_out_mprj[110]
+ la_data_out_mprj[111] la_data_out_mprj[112] la_data_out_mprj[113] la_data_out_mprj[114]
+ la_data_out_mprj[115] la_data_out_mprj[116] la_data_out_mprj[117] la_data_out_mprj[118]
+ la_data_out_mprj[119] la_data_out_mprj[11] la_data_out_mprj[120] la_data_out_mprj[121]
+ la_data_out_mprj[122] la_data_out_mprj[123] la_data_out_mprj[124] la_data_out_mprj[125]
+ la_data_out_mprj[126] la_data_out_mprj[127] la_data_out_mprj[12] la_data_out_mprj[13]
+ la_data_out_mprj[14] la_data_out_mprj[15] la_data_out_mprj[16] la_data_out_mprj[17]
+ la_data_out_mprj[18] la_data_out_mprj[19] la_data_out_mprj[1] la_data_out_mprj[20]
+ la_data_out_mprj[21] la_data_out_mprj[22] la_data_out_mprj[23] la_data_out_mprj[24]
+ la_data_out_mprj[25] la_data_out_mprj[26] la_data_out_mprj[27] la_data_out_mprj[28]
+ la_data_out_mprj[29] la_data_out_mprj[2] la_data_out_mprj[30] la_data_out_mprj[31]
+ la_data_out_mprj[32] la_data_out_mprj[33] la_data_out_mprj[34] la_data_out_mprj[35]
+ la_data_out_mprj[36] la_data_out_mprj[37] la_data_out_mprj[38] la_data_out_mprj[39]
+ la_data_out_mprj[3] la_data_out_mprj[40] la_data_out_mprj[42] la_data_out_mprj[43]
+ la_data_out_mprj[44] la_data_out_mprj[45] la_data_out_mprj[46] la_data_out_mprj[47]
+ la_data_out_mprj[48] la_data_out_mprj[49] la_data_out_mprj[4] la_data_out_mprj[50]
+ la_data_out_mprj[51] la_data_out_mprj[52] la_data_out_mprj[53] la_data_out_mprj[54]
+ la_data_out_mprj[55] la_data_out_mprj[56] la_data_out_mprj[57] la_data_out_mprj[58]
+ la_data_out_mprj[59] la_data_out_mprj[5] la_data_out_mprj[60] la_data_out_mprj[61]
+ la_data_out_mprj[62] la_data_out_mprj[63] la_data_out_mprj[64] la_data_out_mprj[65]
+ la_data_out_mprj[66] la_data_out_mprj[67] la_data_out_mprj[68] la_data_out_mprj[69]
+ la_data_out_mprj[6] la_data_out_mprj[70] la_data_out_mprj[71] la_data_out_mprj[72]
+ la_data_out_mprj[73] la_data_out_mprj[74] la_data_out_mprj[75] la_data_out_mprj[76]
+ la_data_out_mprj[77] la_data_out_mprj[78] la_data_out_mprj[79] la_data_out_mprj[7]
+ la_data_out_mprj[80] la_data_out_mprj[81] la_data_out_mprj[82] la_data_out_mprj[83]
+ la_data_out_mprj[84] la_data_out_mprj[85] la_data_out_mprj[86] la_data_out_mprj[87]
+ la_data_out_mprj[88] la_data_out_mprj[89] la_data_out_mprj[8] la_data_out_mprj[90]
+ la_data_out_mprj[91] la_data_out_mprj[92] la_data_out_mprj[93] la_data_out_mprj[94]
+ la_data_out_mprj[95] la_data_out_mprj[96] la_data_out_mprj[97] la_data_out_mprj[98]
+ la_data_out_mprj[99] la_data_out_mprj[9] la_oen_core[0] la_oen_core[100] la_oen_core[101]
+ la_oen_core[102] la_oen_core[103] la_oen_core[104] la_oen_core[105] la_oen_core[106]
+ la_oen_core[107] la_oen_core[108] la_oen_core[109] la_oen_core[10] la_oen_core[110]
+ la_oen_core[111] la_oen_core[112] la_oen_core[113] la_oen_core[114] la_oen_core[115]
+ la_oen_core[116] la_oen_core[117] la_oen_core[118] la_oen_core[119] la_oen_core[11]
+ la_oen_core[120] la_oen_core[121] la_oen_core[122] la_oen_core[123] la_oen_core[124]
+ la_oen_core[125] la_oen_core[126] la_oen_core[127] la_oen_core[12] la_oen_core[13]
+ la_oen_core[14] la_oen_core[15] la_oen_core[16] la_oen_core[17] la_oen_core[18]
+ la_oen_core[19] la_oen_core[1] la_oen_core[20] la_oen_core[21] la_oen_core[22] la_oen_core[23]
+ la_oen_core[24] la_oen_core[25] la_oen_core[26] la_oen_core[27] la_oen_core[28]
+ la_oen_core[29] la_oen_core[2] la_oen_core[30] la_oen_core[31] la_oen_core[32] la_oen_core[33]
+ la_oen_core[34] la_oen_core[35] la_oen_core[36] la_oen_core[37] la_oen_core[38]
+ la_oen_core[39] la_oen_core[3] la_oen_core[40] la_oen_core[41] la_oen_core[42] la_oen_core[43]
+ la_oen_core[44] la_oen_core[45] la_oen_core[46] la_oen_core[47] la_oen_core[48]
+ la_oen_core[49] la_oen_core[4] la_oen_core[50] la_oen_core[51] la_oen_core[52] la_oen_core[53]
+ la_oen_core[54] la_oen_core[55] la_oen_core[56] la_oen_core[57] la_oen_core[58]
+ la_oen_core[59] la_oen_core[5] la_oen_core[60] la_oen_core[61] la_oen_core[62] la_oen_core[63]
+ la_oen_core[64] la_oen_core[65] la_oen_core[66] la_oen_core[67] la_oen_core[68]
+ la_oen_core[69] la_oen_core[6] la_oen_core[70] la_oen_core[71] la_oen_core[72] la_oen_core[73]
+ la_oen_core[74] la_oen_core[75] la_oen_core[76] la_oen_core[77] la_oen_core[78]
+ la_oen_core[79] la_oen_core[7] la_oen_core[80] la_oen_core[81] la_oen_core[82] la_oen_core[83]
+ la_oen_core[84] la_oen_core[85] la_oen_core[86] la_oen_core[87] la_oen_core[88]
+ la_oen_core[89] la_oen_core[8] la_oen_core[90] la_oen_core[91] la_oen_core[92] la_oen_core[93]
+ la_oen_core[94] la_oen_core[95] la_oen_core[96] la_oen_core[97] la_oen_core[98]
+ la_oen_core[99] la_oen_core[9] la_oen_mprj[0] la_oen_mprj[100] la_oen_mprj[101]
+ la_oen_mprj[102] la_oen_mprj[103] la_oen_mprj[104] la_oen_mprj[105] la_oen_mprj[106]
+ la_oen_mprj[107] la_oen_mprj[108] la_oen_mprj[109] la_oen_mprj[10] la_oen_mprj[110]
+ la_oen_mprj[111] la_oen_mprj[112] la_oen_mprj[113] la_oen_mprj[114] la_oen_mprj[115]
+ la_oen_mprj[116] la_oen_mprj[117] la_oen_mprj[118] la_oen_mprj[119] la_oen_mprj[11]
+ la_oen_mprj[120] la_oen_mprj[121] la_oen_mprj[122] la_oen_mprj[123] la_oen_mprj[124]
+ la_oen_mprj[125] la_oen_mprj[126] la_oen_mprj[127] la_oen_mprj[12] la_oen_mprj[13]
+ la_oen_mprj[14] la_oen_mprj[15] la_oen_mprj[16] la_oen_mprj[17] la_oen_mprj[18]
+ la_oen_mprj[19] la_oen_mprj[1] la_oen_mprj[20] la_oen_mprj[21] la_oen_mprj[22] la_oen_mprj[23]
+ la_oen_mprj[24] la_oen_mprj[25] la_oen_mprj[26] la_oen_mprj[27] la_oen_mprj[28]
+ la_oen_mprj[29] la_oen_mprj[2] la_oen_mprj[30] la_oen_mprj[31] la_oen_mprj[32] la_oen_mprj[33]
+ la_oen_mprj[34] la_oen_mprj[35] la_oen_mprj[36] la_oen_mprj[37] la_oen_mprj[38]
+ la_oen_mprj[39] la_oen_mprj[3] la_oen_mprj[40] la_oen_mprj[41] la_oen_mprj[42] la_oen_mprj[43]
+ la_oen_mprj[44] la_oen_mprj[45] la_oen_mprj[46] la_oen_mprj[47] la_oen_mprj[48]
+ la_oen_mprj[49] la_oen_mprj[4] la_oen_mprj[50] la_oen_mprj[51] la_oen_mprj[52] la_oen_mprj[53]
+ la_oen_mprj[54] la_oen_mprj[55] la_oen_mprj[56] la_oen_mprj[57] la_oen_mprj[58]
+ la_oen_mprj[59] la_oen_mprj[5] la_oen_mprj[60] la_oen_mprj[61] la_oen_mprj[62] la_oen_mprj[63]
+ la_oen_mprj[64] la_oen_mprj[65] la_oen_mprj[66] la_oen_mprj[67] la_oen_mprj[68]
+ la_oen_mprj[69] la_oen_mprj[6] la_oen_mprj[70] la_oen_mprj[71] la_oen_mprj[72] la_oen_mprj[73]
+ la_oen_mprj[74] la_oen_mprj[75] la_oen_mprj[76] la_oen_mprj[77] la_oen_mprj[78]
+ la_oen_mprj[79] la_oen_mprj[7] la_oen_mprj[80] la_oen_mprj[81] la_oen_mprj[82] la_oen_mprj[84]
+ la_oen_mprj[85] la_oen_mprj[86] la_oen_mprj[87] la_oen_mprj[88] la_oen_mprj[89]
+ la_oen_mprj[8] la_oen_mprj[90] la_oen_mprj[91] la_oen_mprj[92] la_oen_mprj[93] la_oen_mprj[94]
+ la_oen_mprj[95] la_oen_mprj[96] la_oen_mprj[97] la_oen_mprj[98] la_oen_mprj[99]
+ la_oen_mprj[9] mprj_adr_o_core[0] mprj_adr_o_core[10] mprj_adr_o_core[11] mprj_adr_o_core[12]
+ mprj_adr_o_core[13] mprj_adr_o_core[14] mprj_adr_o_core[15] mprj_adr_o_core[16]
+ mprj_adr_o_core[17] mprj_adr_o_core[18] mprj_adr_o_core[19] mprj_adr_o_core[1] mprj_adr_o_core[20]
+ mprj_adr_o_core[21] mprj_adr_o_core[22] mprj_adr_o_core[23] mprj_adr_o_core[24]
+ mprj_adr_o_core[25] mprj_adr_o_core[26] mprj_adr_o_core[27] mprj_adr_o_core[28]
+ mprj_adr_o_core[29] mprj_adr_o_core[2] mprj_adr_o_core[30] mprj_adr_o_core[31] mprj_adr_o_core[3]
+ mprj_adr_o_core[4] mprj_adr_o_core[5] mprj_adr_o_core[6] mprj_adr_o_core[7] mprj_adr_o_core[8]
+ mprj_adr_o_core[9] mprj_adr_o_user[0] mprj_adr_o_user[10] mprj_adr_o_user[11] mprj_adr_o_user[12]
+ mprj_adr_o_user[13] mprj_adr_o_user[14] mprj_adr_o_user[15] mprj_adr_o_user[16]
+ mprj_adr_o_user[17] mprj_adr_o_user[18] mprj_adr_o_user[19] mprj_adr_o_user[1] mprj_adr_o_user[20]
+ mprj_adr_o_user[21] mprj_adr_o_user[22] mprj_adr_o_user[23] mprj_adr_o_user[24]
+ mprj_adr_o_user[25] mprj_adr_o_user[26] mprj_adr_o_user[27] mprj_adr_o_user[28]
+ mprj_adr_o_user[29] mprj_adr_o_user[2] mprj_adr_o_user[30] mprj_adr_o_user[31] mprj_adr_o_user[3]
+ mprj_adr_o_user[4] mprj_adr_o_user[5] mprj_adr_o_user[6] mprj_adr_o_user[7] mprj_adr_o_user[8]
+ mprj_adr_o_user[9] mprj_cyc_o_core mprj_cyc_o_user mprj_dat_o_core[0] mprj_dat_o_core[10]
+ mprj_dat_o_core[11] mprj_dat_o_core[12] mprj_dat_o_core[13] mprj_dat_o_core[14]
+ mprj_dat_o_core[15] mprj_dat_o_core[16] mprj_dat_o_core[17] mprj_dat_o_core[18]
+ mprj_dat_o_core[19] mprj_dat_o_core[1] mprj_dat_o_core[20] mprj_dat_o_core[21] mprj_dat_o_core[22]
+ mprj_dat_o_core[23] mprj_dat_o_core[24] mprj_dat_o_core[25] mprj_dat_o_core[26]
+ mprj_dat_o_core[27] mprj_dat_o_core[28] mprj_dat_o_core[29] mprj_dat_o_core[2] mprj_dat_o_core[30]
+ mprj_dat_o_core[31] mprj_dat_o_core[3] mprj_dat_o_core[4] mprj_dat_o_core[5] mprj_dat_o_core[6]
+ mprj_dat_o_core[7] mprj_dat_o_core[8] mprj_dat_o_core[9] mprj_dat_o_user[0] mprj_dat_o_user[10]
+ mprj_dat_o_user[11] mprj_dat_o_user[12] mprj_dat_o_user[13] mprj_dat_o_user[14]
+ mprj_dat_o_user[15] mprj_dat_o_user[16] mprj_dat_o_user[17] mprj_dat_o_user[18]
+ mprj_dat_o_user[19] mprj_dat_o_user[1] mprj_dat_o_user[20] mprj_dat_o_user[21] mprj_dat_o_user[22]
+ mprj_dat_o_user[23] mprj_dat_o_user[24] mprj_dat_o_user[25] mprj_dat_o_user[26]
+ mprj_dat_o_user[27] mprj_dat_o_user[28] mprj_dat_o_user[29] mprj_dat_o_user[2] mprj_dat_o_user[30]
+ mprj_dat_o_user[31] mprj_dat_o_user[3] mprj_dat_o_user[4] mprj_dat_o_user[5] mprj_dat_o_user[6]
+ mprj_dat_o_user[7] mprj_dat_o_user[8] mprj_dat_o_user[9] mprj_sel_o_core[0] mprj_sel_o_core[1]
+ mprj_sel_o_core[2] mprj_sel_o_core[3] mprj_sel_o_user[0] mprj_sel_o_user[1] mprj_sel_o_user[2]
+ mprj_sel_o_user[3] mprj_stb_o_core mprj_stb_o_user mprj_we_o_core mprj_we_o_user
+ user1_vcc_powergood user1_vdd_powergood user2_vcc_powergood user2_vdd_powergood
+ user_clock user_clock2 user_reset user_resetn VPWR VGND
XFILLER_3_1700 VGND VGND VPWR VPWR sky130_fd_sc_hd__decap_4
XFILLER_3_1744 VGND VGND VPWR VPWR sky130_fd_sc_hd__fill_2
XFILLER_3_1777 VGND VGND VPWR VPWR sky130_fd_sc_hd__fill_1
XFILLER_19_1719 VGND VGND VPWR VPWR sky130_fd_sc_hd__fill_2
XFILLER_10_306 VGND VGND VPWR VPWR sky130_fd_sc_hd__decap_12
XFILLER_17_1432 VGND VGND VPWR VPWR sky130_fd_sc_hd__fill_2
XFILLER_17_1476 VGND VGND VPWR VPWR sky130_fd_sc_hd__fill_1
XFILLER_13_1307 VGND VGND VPWR VPWR sky130_fd_sc_hd__decap_6
XANTENNA_user_to_mprj_in_gates\[34\]_A la_data_out_core[34] VGND VGND VPWR VPWR sky130_fd_sc_hd__diode_2
XFILLER_8_1655 VGND VGND VPWR VPWR sky130_fd_sc_hd__decap_3
XFILLER_18_417 VGND VGND VPWR VPWR sky130_fd_sc_hd__decap_8
XFILLER_18_406 VGND VGND VPWR VPWR sky130_fd_sc_hd__fill_2
XFILLER_2_1232 VGND VGND VPWR VPWR sky130_fd_sc_hd__fill_1
XFILLER_6_1390 VGND VGND VPWR VPWR sky130_fd_sc_hd__decap_12
XFILLER_18_428 VGND VGND VPWR VPWR sky130_fd_sc_hd__decap_12
Xmprj_logic_high\[299\] VGND VGND VPWR VPWR mprj_logic_high\[299\]/HI mprj_logic_high\[299\]/LO
+ sky130_fd_sc_hd__conb_1
X_501_ la_data_out_mprj[30] VGND VGND VPWR VPWR _501_/Y sky130_fd_sc_hd__inv_2
X_432_ mprj_adr_o_core[25] VGND VGND VPWR VPWR _432_/Y sky130_fd_sc_hd__inv_2
XFILLER_14_601 VGND VGND VPWR VPWR sky130_fd_sc_hd__fill_2
XFILLER_14_656 VGND VGND VPWR VPWR sky130_fd_sc_hd__decap_3
XFILLER_14_678 VGND VGND VPWR VPWR sky130_fd_sc_hd__fill_1
X_363_ la_oen_mprj[95] VGND VGND VPWR VPWR _363_/Y sky130_fd_sc_hd__inv_2
Xla_buf\[36\] _507_/Y la_buf\[36\]/TE VGND VGND VPWR VPWR la_data_in_core[36] sky130_fd_sc_hd__einvp_8
XFILLER_6_855 VGND VGND VPWR VPWR sky130_fd_sc_hd__decap_12
XFILLER_10_895 VGND VGND VPWR VPWR sky130_fd_sc_hd__decap_12
XFILLER_5_365 VGND VGND VPWR VPWR sky130_fd_sc_hd__decap_12
XANTENNA_user_to_mprj_in_gates\[25\]_A la_data_out_core[25] VGND VGND VPWR VPWR sky130_fd_sc_hd__diode_2
XFILLER_3_23 VGND VGND VPWR VPWR sky130_fd_sc_hd__decap_8
XFILLER_7_1132 VGND VGND VPWR VPWR sky130_fd_sc_hd__decap_4
XFILLER_7_1121 VGND VGND VPWR VPWR sky130_fd_sc_hd__decap_8
XFILLER_7_1198 VGND VGND VPWR VPWR sky130_fd_sc_hd__decap_12
Xuser_to_mprj_in_gates\[25\] la_data_out_core[25] mprj_logic_high\[355\]/HI VGND VGND
+ VPWR VPWR user_to_mprj_in_gates\[25\]/Y sky130_fd_sc_hd__nand2_4
XFILLER_14_1605 VGND VGND VPWR VPWR sky130_fd_sc_hd__fill_2
XANTENNA_user_to_mprj_in_gates\[100\]_A la_data_out_core[100] VGND VGND VPWR VPWR
+ sky130_fd_sc_hd__diode_2
XANTENNA_user_to_mprj_in_gates\[16\]_A la_data_out_core[16] VGND VGND VPWR VPWR sky130_fd_sc_hd__diode_2
XFILLER_15_409 VGND VGND VPWR VPWR sky130_fd_sc_hd__fill_1
XFILLER_11_637 VGND VGND VPWR VPWR sky130_fd_sc_hd__decap_4
XFILLER_10_147 VGND VGND VPWR VPWR sky130_fd_sc_hd__decap_12
XFILLER_13_1115 VGND VGND VPWR VPWR sky130_fd_sc_hd__fill_1
XFILLER_13_1137 VGND VGND VPWR VPWR sky130_fd_sc_hd__decap_12
Xuser_to_mprj_oen_buffers\[76\] _344_/Y mprj_logic_high\[278\]/HI VGND VGND VPWR VPWR
+ la_oen_core[76] sky130_fd_sc_hd__einvp_8
Xmprj_logic_high\[214\] VGND VGND VPWR VPWR mprj_logic_high\[214\]/HI mprj_logic_high\[214\]/LO
+ sky130_fd_sc_hd__conb_1
Xmprj_dat_buf\[24\] _463_/Y mprj_dat_buf\[24\]/TE VGND VGND VPWR VPWR mprj_dat_o_user[24]
+ sky130_fd_sc_hd__einvp_8
XFILLER_20_1108 VGND VGND VPWR VPWR sky130_fd_sc_hd__decap_8
XFILLER_8_1496 VGND VGND VPWR VPWR sky130_fd_sc_hd__decap_12
XANTENNA_user_to_mprj_oen_buffers\[104\]_TE mprj_logic_high\[306\]/HI VGND VGND VPWR
+ VPWR sky130_fd_sc_hd__diode_2
XFILLER_19_759 VGND VGND VPWR VPWR sky130_fd_sc_hd__decap_4
XFILLER_15_921 VGND VGND VPWR VPWR sky130_fd_sc_hd__decap_3
X_415_ mprj_adr_o_core[8] VGND VGND VPWR VPWR _415_/Y sky130_fd_sc_hd__inv_2
XFILLER_15_965 VGND VGND VPWR VPWR sky130_fd_sc_hd__fill_2
X_346_ la_oen_mprj[78] VGND VGND VPWR VPWR _346_/Y sky130_fd_sc_hd__inv_2
XFILLER_10_670 VGND VGND VPWR VPWR sky130_fd_sc_hd__fill_1
XFILLER_6_663 VGND VGND VPWR VPWR sky130_fd_sc_hd__decap_8
XFILLER_5_195 VGND VGND VPWR VPWR sky130_fd_sc_hd__decap_3
XFILLER_9_1249 VGND VGND VPWR VPWR sky130_fd_sc_hd__decap_8
XFILLER_0_1747 VGND VGND VPWR VPWR sky130_fd_sc_hd__fill_2
XFILLER_18_781 VGND VGND VPWR VPWR sky130_fd_sc_hd__fill_2
XFILLER_20_1697 VGND VGND VPWR VPWR sky130_fd_sc_hd__decap_4
XFILLER_17_291 VGND VGND VPWR VPWR sky130_fd_sc_hd__fill_2
XFILLER_20_478 VGND VGND VPWR VPWR sky130_fd_sc_hd__decap_12
XFILLER_14_1457 VGND VGND VPWR VPWR sky130_fd_sc_hd__decap_6
XANTENNA_user_to_mprj_oen_buffers\[127\]_TE mprj_logic_high\[329\]/HI VGND VGND VPWR
+ VPWR sky130_fd_sc_hd__diode_2
XFILLER_5_1636 VGND VGND VPWR VPWR sky130_fd_sc_hd__decap_6
XFILLER_3_1360 VGND VGND VPWR VPWR sky130_fd_sc_hd__decap_4
XFILLER_16_729 VGND VGND VPWR VPWR sky130_fd_sc_hd__decap_3
XFILLER_15_228 VGND VGND VPWR VPWR sky130_fd_sc_hd__fill_2
XPHY_702 VGND VPWR sky130_fd_sc_hd__tapvpwrvgnd_1
Xmprj_logic_high\[75\] VGND VGND VPWR VPWR la_buf\[1\]/TE mprj_logic_high\[75\]/LO
+ sky130_fd_sc_hd__conb_1
XFILLER_12_913 VGND VGND VPWR VPWR sky130_fd_sc_hd__fill_2
XPHY_713 VGND VPWR sky130_fd_sc_hd__tapvpwrvgnd_1
XFILLER_8_928 VGND VGND VPWR VPWR sky130_fd_sc_hd__decap_8
XFILLER_12_968 VGND VGND VPWR VPWR sky130_fd_sc_hd__fill_2
Xmprj_logic_high\[164\] VGND VGND VPWR VPWR la_buf\[90\]/TE mprj_logic_high\[164\]/LO
+ sky130_fd_sc_hd__conb_1
Xmprj_logic_high\[331\] VGND VGND VPWR VPWR mprj_logic_high\[331\]/HI mprj_logic_high\[331\]/LO
+ sky130_fd_sc_hd__conb_1
Xmprj_logic_high\[429\] VGND VGND VPWR VPWR mprj_logic_high\[429\]/HI mprj_logic_high\[429\]/LO
+ sky130_fd_sc_hd__conb_1
XFILLER_3_655 VGND VGND VPWR VPWR sky130_fd_sc_hd__fill_2
XANTENNA_la_buf\[41\]_TE la_buf\[41\]/TE VGND VGND VPWR VPWR sky130_fd_sc_hd__diode_2
XFILLER_2_187 VGND VGND VPWR VPWR sky130_fd_sc_hd__decap_8
XFILLER_2_198 VGND VGND VPWR VPWR sky130_fd_sc_hd__decap_8
XANTENNA_user_to_mprj_oen_buffers\[26\]_TE mprj_logic_high\[228\]/HI VGND VGND VPWR
+ VPWR sky130_fd_sc_hd__diode_2
XFILLER_19_523 VGND VGND VPWR VPWR sky130_fd_sc_hd__decap_6
XFILLER_19_501 VGND VGND VPWR VPWR sky130_fd_sc_hd__fill_2
XFILLER_4_1157 VGND VGND VPWR VPWR sky130_fd_sc_hd__decap_8
XFILLER_19_589 VGND VGND VPWR VPWR sky130_fd_sc_hd__decap_4
XFILLER_15_751 VGND VGND VPWR VPWR sky130_fd_sc_hd__decap_12
XFILLER_9_55 VGND VGND VPWR VPWR sky130_fd_sc_hd__decap_4
XFILLER_9_77 VGND VGND VPWR VPWR sky130_fd_sc_hd__fill_2
XFILLER_11_990 VGND VGND VPWR VPWR sky130_fd_sc_hd__decap_3
Xuser_to_mprj_in_gates\[92\] la_data_out_core[92] mprj_logic_high\[422\]/HI VGND VGND
+ VPWR VPWR user_to_mprj_in_gates\[92\]/Y sky130_fd_sc_hd__nand2_4
XFILLER_20_1472 VGND VGND VPWR VPWR sky130_fd_sc_hd__fill_2
XFILLER_20_1461 VGND VGND VPWR VPWR sky130_fd_sc_hd__fill_2
XFILLER_0_1566 VGND VGND VPWR VPWR sky130_fd_sc_hd__fill_2
XFILLER_16_1508 VGND VGND VPWR VPWR sky130_fd_sc_hd__fill_1
XFILLER_14_1221 VGND VGND VPWR VPWR sky130_fd_sc_hd__decap_6
XANTENNA_la_buf\[64\]_TE la_buf\[64\]/TE VGND VGND VPWR VPWR sky130_fd_sc_hd__diode_2
XFILLER_14_1254 VGND VGND VPWR VPWR sky130_fd_sc_hd__fill_2
XFILLER_14_1298 VGND VGND VPWR VPWR sky130_fd_sc_hd__fill_1
XANTENNA_user_to_mprj_oen_buffers\[49\]_TE mprj_logic_high\[251\]/HI VGND VGND VPWR
+ VPWR sky130_fd_sc_hd__diode_2
Xuser_to_mprj_oen_buffers\[109\] _377_/Y mprj_logic_high\[311\]/HI VGND VGND VPWR
+ VPWR la_oen_core[109] sky130_fd_sc_hd__einvp_8
XFILLER_18_31 VGND VGND VPWR VPWR sky130_fd_sc_hd__fill_1
XFILLER_5_1477 VGND VGND VPWR VPWR sky130_fd_sc_hd__decap_8
XFILLER_5_1499 VGND VGND VPWR VPWR sky130_fd_sc_hd__decap_3
Xuser_to_mprj_oen_buffers\[39\] _638_/Y mprj_logic_high\[241\]/HI VGND VGND VPWR VPWR
+ la_oen_core[39] sky130_fd_sc_hd__einvp_8
XFILLER_16_548 VGND VGND VPWR VPWR sky130_fd_sc_hd__fill_1
XPHY_510 VGND VPWR sky130_fd_sc_hd__tapvpwrvgnd_1
XFILLER_19_1121 VGND VGND VPWR VPWR sky130_fd_sc_hd__fill_2
XFILLER_16_559 VGND VGND VPWR VPWR sky130_fd_sc_hd__decap_12
Xmprj_logic_high\[281\] VGND VGND VPWR VPWR mprj_logic_high\[281\]/HI mprj_logic_high\[281\]/LO
+ sky130_fd_sc_hd__conb_1
XPHY_532 VGND VPWR sky130_fd_sc_hd__tapvpwrvgnd_1
XPHY_521 VGND VPWR sky130_fd_sc_hd__tapvpwrvgnd_1
Xmprj_logic_high\[379\] VGND VGND VPWR VPWR mprj_logic_high\[379\]/HI mprj_logic_high\[379\]/LO
+ sky130_fd_sc_hd__conb_1
XPHY_543 VGND VPWR sky130_fd_sc_hd__tapvpwrvgnd_1
XPHY_554 VGND VPWR sky130_fd_sc_hd__tapvpwrvgnd_1
XPHY_587 VGND VPWR sky130_fd_sc_hd__tapvpwrvgnd_1
XPHY_576 VGND VPWR sky130_fd_sc_hd__tapvpwrvgnd_1
XPHY_565 VGND VPWR sky130_fd_sc_hd__tapvpwrvgnd_1
XFILLER_19_1198 VGND VGND VPWR VPWR sky130_fd_sc_hd__fill_2
XFILLER_7_202 VGND VGND VPWR VPWR sky130_fd_sc_hd__decap_12
XPHY_598 VGND VPWR sky130_fd_sc_hd__tapvpwrvgnd_1
XFILLER_8_769 VGND VGND VPWR VPWR sky130_fd_sc_hd__decap_12
XFILLER_7_268 VGND VGND VPWR VPWR sky130_fd_sc_hd__decap_6
XFILLER_3_430 VGND VGND VPWR VPWR sky130_fd_sc_hd__fill_2
XFILLER_10_1696 VGND VGND VPWR VPWR sky130_fd_sc_hd__decap_4
XANTENNA_mprj_dat_buf\[13\]_TE mprj_dat_buf\[13\]/TE VGND VGND VPWR VPWR sky130_fd_sc_hd__diode_2
XFILLER_3_463 VGND VGND VPWR VPWR sky130_fd_sc_hd__fill_1
XFILLER_4_975 VGND VGND VPWR VPWR sky130_fd_sc_hd__fill_1
XANTENNA__402__A mprj_we_o_core VGND VGND VPWR VPWR sky130_fd_sc_hd__diode_2
XFILLER_19_331 VGND VGND VPWR VPWR sky130_fd_sc_hd__decap_3
Xuser_to_mprj_in_buffers\[62\] user_to_mprj_in_gates\[62\]/Y VGND VGND VPWR VPWR la_data_in_mprj[62]
+ sky130_fd_sc_hd__inv_8
XFILLER_15_581 VGND VGND VPWR VPWR sky130_fd_sc_hd__fill_2
XANTENNA_la_buf\[87\]_TE la_buf\[87\]/TE VGND VGND VPWR VPWR sky130_fd_sc_hd__diode_2
XFILLER_15_592 VGND VGND VPWR VPWR sky130_fd_sc_hd__fill_2
XFILLER_11_1449 VGND VGND VPWR VPWR sky130_fd_sc_hd__decap_12
XFILLER_0_1330 VGND VGND VPWR VPWR sky130_fd_sc_hd__decap_8
XFILLER_20_1280 VGND VGND VPWR VPWR sky130_fd_sc_hd__fill_1
XFILLER_0_1352 VGND VGND VPWR VPWR sky130_fd_sc_hd__fill_1
XFILLER_0_1385 VGND VGND VPWR VPWR sky130_fd_sc_hd__decap_4
XFILLER_4_205 VGND VGND VPWR VPWR sky130_fd_sc_hd__decap_6