* NGSPICE file created from storage.ext - technology: sky130A

* Black-box entry subcircuit for sky130_fd_sc_hd__decap_12 abstract view
.subckt sky130_fd_sc_hd__decap_12 VGND VNB VPB VPWR
.ends

* Black-box entry subcircuit for sky130_fd_sc_hd__decap_3 abstract view
.subckt sky130_fd_sc_hd__decap_3 VGND VNB VPB VPWR
.ends

* Black-box entry subcircuit for sky130_fd_sc_hd__tapvpwrvgnd_1 abstract view
.subckt sky130_fd_sc_hd__tapvpwrvgnd_1 VGND VPWR
.ends

* Black-box entry subcircuit for sky130_fd_sc_hd__fill_2 abstract view
.subckt sky130_fd_sc_hd__fill_2 VGND VNB VPB VPWR
.ends

* Black-box entry subcircuit for sky130_fd_sc_hd__decap_8 abstract view
.subckt sky130_fd_sc_hd__decap_8 VGND VNB VPB VPWR
.ends

* Black-box entry subcircuit for sky130_fd_sc_hd__diode_2 abstract view
.subckt sky130_fd_sc_hd__diode_2 DIODE VGND VNB VPB VPWR
.ends

* Black-box entry subcircuit for sky130_fd_sc_hd__decap_6 abstract view
.subckt sky130_fd_sc_hd__decap_6 VGND VNB VPB VPWR
.ends

* Black-box entry subcircuit for sky130_fd_sc_hd__decap_4 abstract view
.subckt sky130_fd_sc_hd__decap_4 VGND VNB VPB VPWR
.ends

* Black-box entry subcircuit for sram_1rw1r_32_256_8_sky130 abstract view
.subckt sram_1rw1r_32_256_8_sky130 din0[0] din0[1] din0[2] din0[3] din0[4] din0[5]
+ din0[6] din0[7] din0[8] din0[9] din0[10] din0[11] din0[12] din0[13] din0[14] din0[15]
+ din0[16] din0[17] din0[18] din0[19] din0[20] din0[21] din0[22] din0[23] din0[24]
+ din0[25] din0[26] din0[27] din0[28] din0[29] din0[30] din0[31] addr0[0] addr0[1]
+ addr0[2] addr0[3] addr0[4] addr0[5] addr0[6] addr0[7] addr1[0] addr1[1] addr1[2]
+ addr1[3] addr1[4] addr1[5] addr1[6] addr1[7] csb0 csb1 web0 clk0 clk1 wmask0[0]
+ wmask0[1] wmask0[2] wmask0[3] dout0[0] dout0[1] dout0[2] dout0[3] dout0[4] dout0[5]
+ dout0[6] dout0[7] dout0[8] dout0[9] dout0[10] dout0[11] dout0[12] dout0[13] dout0[14]
+ dout0[15] dout0[16] dout0[17] dout0[18] dout0[19] dout0[20] dout0[21] dout0[22]
+ dout0[23] dout0[24] dout0[25] dout0[26] dout0[27] dout0[28] dout0[29] dout0[30]
+ dout0[31] dout1[0] dout1[1] dout1[2] dout1[3] dout1[4] dout1[5] dout1[6] dout1[7]
+ dout1[8] dout1[9] dout1[10] dout1[11] dout1[12] dout1[13] dout1[14] dout1[15] dout1[16]
+ dout1[17] dout1[18] dout1[19] dout1[20] dout1[21] dout1[22] dout1[23] dout1[24]
+ dout1[25] dout1[26] dout1[27] dout1[28] dout1[29] dout1[30] dout1[31] vdd gnd
.ends

* Black-box entry subcircuit for sky130_fd_sc_hd__buf_8 abstract view
.subckt sky130_fd_sc_hd__buf_8 A VGND VNB VPB VPWR X
.ends

* Black-box entry subcircuit for sky130_fd_sc_hd__fill_1 abstract view
.subckt sky130_fd_sc_hd__fill_1 VGND VNB VPB VPWR
.ends

* Black-box entry subcircuit for sky130_fd_sc_hd__buf_4 abstract view
.subckt sky130_fd_sc_hd__buf_4 A VGND VNB VPB VPWR X
.ends

* Black-box entry subcircuit for sky130_fd_sc_hd__conb_1 abstract view
.subckt sky130_fd_sc_hd__conb_1 VGND VNB VPB VPWR HI LO
.ends

.subckt storage mgmt_addr[0] mgmt_addr[1] mgmt_addr[2] mgmt_addr[3] mgmt_addr[4] mgmt_addr[5]
+ mgmt_addr[6] mgmt_addr[7] mgmt_addr_ro[0] mgmt_addr_ro[1] mgmt_addr_ro[2] mgmt_addr_ro[3]
+ mgmt_addr_ro[4] mgmt_addr_ro[5] mgmt_addr_ro[6] mgmt_addr_ro[7] mgmt_clk mgmt_ena[0]
+ mgmt_ena[1] mgmt_ena_ro mgmt_rdata[0] mgmt_rdata[10] mgmt_rdata[11] mgmt_rdata[12]
+ mgmt_rdata[13] mgmt_rdata[14] mgmt_rdata[15] mgmt_rdata[16] mgmt_rdata[17] mgmt_rdata[18]
+ mgmt_rdata[19] mgmt_rdata[1] mgmt_rdata[20] mgmt_rdata[21] mgmt_rdata[22] mgmt_rdata[23]
+ mgmt_rdata[24] mgmt_rdata[25] mgmt_rdata[26] mgmt_rdata[27] mgmt_rdata[28] mgmt_rdata[29]
+ mgmt_rdata[2] mgmt_rdata[30] mgmt_rdata[31] mgmt_rdata[32] mgmt_rdata[33] mgmt_rdata[34]
+ mgmt_rdata[35] mgmt_rdata[36] mgmt_rdata[37] mgmt_rdata[38] mgmt_rdata[39] mgmt_rdata[3]
+ mgmt_rdata[40] mgmt_rdata[41] mgmt_rdata[42] mgmt_rdata[43] mgmt_rdata[44] mgmt_rdata[45]
+ mgmt_rdata[46] mgmt_rdata[47] mgmt_rdata[48] mgmt_rdata[49] mgmt_rdata[4] mgmt_rdata[50]
+ mgmt_rdata[51] mgmt_rdata[52] mgmt_rdata[53] mgmt_rdata[54] mgmt_rdata[55] mgmt_rdata[56]
+ mgmt_rdata[57] mgmt_rdata[58] mgmt_rdata[59] mgmt_rdata[5] mgmt_rdata[60] mgmt_rdata[61]
+ mgmt_rdata[62] mgmt_rdata[63] mgmt_rdata[6] mgmt_rdata[7] mgmt_rdata[8] mgmt_rdata[9]
+ mgmt_rdata_ro[0] mgmt_rdata_ro[10] mgmt_rdata_ro[11] mgmt_rdata_ro[12] mgmt_rdata_ro[13]
+ mgmt_rdata_ro[14] mgmt_rdata_ro[15] mgmt_rdata_ro[16] mgmt_rdata_ro[17] mgmt_rdata_ro[18]
+ mgmt_rdata_ro[19] mgmt_rdata_ro[1] mgmt_rdata_ro[20] mgmt_rdata_ro[21] mgmt_rdata_ro[22]
+ mgmt_rdata_ro[23] mgmt_rdata_ro[24] mgmt_rdata_ro[25] mgmt_rdata_ro[26] mgmt_rdata_ro[27]
+ mgmt_rdata_ro[28] mgmt_rdata_ro[29] mgmt_rdata_ro[2] mgmt_rdata_ro[30] mgmt_rdata_ro[31]
+ mgmt_rdata_ro[3] mgmt_rdata_ro[4] mgmt_rdata_ro[5] mgmt_rdata_ro[6] mgmt_rdata_ro[7]
+ mgmt_rdata_ro[8] mgmt_rdata_ro[9] mgmt_wdata[0] mgmt_wdata[10] mgmt_wdata[11] mgmt_wdata[12]
+ mgmt_wdata[13] mgmt_wdata[14] mgmt_wdata[15] mgmt_wdata[16] mgmt_wdata[17] mgmt_wdata[18]
+ mgmt_wdata[19] mgmt_wdata[1] mgmt_wdata[20] mgmt_wdata[21] mgmt_wdata[22] mgmt_wdata[23]
+ mgmt_wdata[24] mgmt_wdata[25] mgmt_wdata[26] mgmt_wdata[27] mgmt_wdata[28] mgmt_wdata[29]
+ mgmt_wdata[2] mgmt_wdata[30] mgmt_wdata[31] mgmt_wdata[3] mgmt_wdata[4] mgmt_wdata[5]
+ mgmt_wdata[6] mgmt_wdata[7] mgmt_wdata[8] mgmt_wdata[9] mgmt_wen[0] mgmt_wen[1]
+ mgmt_wen_mask[0] mgmt_wen_mask[1] mgmt_wen_mask[2] mgmt_wen_mask[3] mgmt_wen_mask[4]
+ mgmt_wen_mask[5] mgmt_wen_mask[6] mgmt_wen_mask[7] VPWR VGND
XFILLER_283_930 VGND VGND VPWR VPWR sky130_fd_sc_hd__decap_12
XFILLER_28_929 VGND VGND VPWR VPWR sky130_fd_sc_hd__decap_3
XPHY_1729 VGND VPWR sky130_fd_sc_hd__tapvpwrvgnd_1
XPHY_1718 VGND VPWR sky130_fd_sc_hd__tapvpwrvgnd_1
XPHY_1707 VGND VPWR sky130_fd_sc_hd__tapvpwrvgnd_1
XFILLER_51_910 VGND VGND VPWR VPWR sky130_fd_sc_hd__decap_12
XFILLER_274_930 VGND VGND VPWR VPWR sky130_fd_sc_hd__fill_2
XFILLER_19_918 VGND VGND VPWR VPWR sky130_fd_sc_hd__decap_12
XFILLER_77_15 VGND VGND VPWR VPWR sky130_fd_sc_hd__decap_12
XFILLER_172_3 VGND VGND VPWR VPWR sky130_fd_sc_hd__decap_12
XFILLER_26_30 VGND VGND VPWR VPWR sky130_fd_sc_hd__decap_8
XFILLER_329_942 VGND VGND VPWR VPWR sky130_fd_sc_hd__decap_12
XANTENNA_SRAM_1_din0[23] mgmt_wdata[23] VGND VGND VPWR VPWR sky130_fd_sc_hd__diode_2
XFILLER_340_30 VGND VGND VPWR VPWR sky130_fd_sc_hd__decap_8
XFILLER_280_933 VGND VGND VPWR VPWR sky130_fd_sc_hd__decap_12
XFILLER_265_930 VGND VGND VPWR VPWR sky130_fd_sc_hd__decap_12
XFILLER_269_39 VGND VGND VPWR VPWR sky130_fd_sc_hd__fill_2
XFILLER_193_918 VGND VGND VPWR VPWR sky130_fd_sc_hd__decap_12
XFILLER_33_954 VGND VGND VPWR VPWR sky130_fd_sc_hd__decap_6
XFILLER_285_27 VGND VGND VPWR VPWR sky130_fd_sc_hd__decap_12
XFILLER_256_930 VGND VGND VPWR VPWR sky130_fd_sc_hd__fill_2
XFILLER_250_30 VGND VGND VPWR VPWR sky130_fd_sc_hd__decap_8
XFILLER_179_39 VGND VGND VPWR VPWR sky130_fd_sc_hd__fill_2
XPHY_927 VGND VGND VPWR VPWR sky130_fd_sc_hd__decap_3
XPHY_916 VGND VGND VPWR VPWR sky130_fd_sc_hd__decap_3
XPHY_905 VGND VGND VPWR VPWR sky130_fd_sc_hd__decap_3
XFILLER_63_39 VGND VGND VPWR VPWR sky130_fd_sc_hd__fill_2
XFILLER_326_945 VGND VGND VPWR VPWR sky130_fd_sc_hd__decap_12
XPHY_1537 VGND VPWR sky130_fd_sc_hd__tapvpwrvgnd_1
XPHY_1526 VGND VPWR sky130_fd_sc_hd__tapvpwrvgnd_1
XPHY_1515 VGND VPWR sky130_fd_sc_hd__tapvpwrvgnd_1
XPHY_1504 VGND VPWR sky130_fd_sc_hd__tapvpwrvgnd_1
XFILLER_195_27 VGND VGND VPWR VPWR sky130_fd_sc_hd__decap_12
XFILLER_184_918 VGND VGND VPWR VPWR sky130_fd_sc_hd__decap_12
XPHY_949 VGND VGND VPWR VPWR sky130_fd_sc_hd__decap_3
XPHY_938 VGND VGND VPWR VPWR sky130_fd_sc_hd__decap_3
XPHY_1559 VGND VPWR sky130_fd_sc_hd__tapvpwrvgnd_1
XPHY_1548 VGND VPWR sky130_fd_sc_hd__tapvpwrvgnd_1
XFILLER_262_933 VGND VGND VPWR VPWR sky130_fd_sc_hd__decap_12
XFILLER_247_930 VGND VGND VPWR VPWR sky130_fd_sc_hd__decap_12
XFILLER_160_30 VGND VGND VPWR VPWR sky130_fd_sc_hd__decap_8
XFILLER_15_954 VGND VGND VPWR VPWR sky130_fd_sc_hd__decap_6
XFILLER_30_957 VGND VGND VPWR VPWR sky130_fd_sc_hd__decap_12
XFILLER_238_930 VGND VGND VPWR VPWR sky130_fd_sc_hd__fill_2
XFILLER_308_945 VGND VGND VPWR VPWR sky130_fd_sc_hd__decap_12
XFILLER_296_15 VGND VGND VPWR VPWR sky130_fd_sc_hd__decap_12
XFILLER_166_918 VGND VGND VPWR VPWR sky130_fd_sc_hd__decap_12
XFILLER_244_933 VGND VGND VPWR VPWR sky130_fd_sc_hd__decap_12
XFILLER_229_930 VGND VGND VPWR VPWR sky130_fd_sc_hd__decap_12
XFILLER_88_957 VGND VGND VPWR VPWR sky130_fd_sc_hd__decap_12
XFILLER_74_27 VGND VGND VPWR VPWR sky130_fd_sc_hd__fill_2
XFILLER_74_38 VGND VGND VPWR VPWR sky130_fd_sc_hd__decap_3
XPHY_1323 VGND VGND VPWR VPWR sky130_fd_sc_hd__decap_3
XPHY_1312 VGND VGND VPWR VPWR sky130_fd_sc_hd__decap_3
XPHY_1301 VGND VGND VPWR VPWR sky130_fd_sc_hd__decap_3
XFILLER_157_918 VGND VGND VPWR VPWR sky130_fd_sc_hd__decap_12
XFILLER_90_15 VGND VGND VPWR VPWR sky130_fd_sc_hd__decap_12
XPHY_724 VGND VGND VPWR VPWR sky130_fd_sc_hd__decap_3
XPHY_713 VGND VGND VPWR VPWR sky130_fd_sc_hd__decap_3
XPHY_702 VGND VGND VPWR VPWR sky130_fd_sc_hd__decap_3
XPHY_735 VGND VGND VPWR VPWR sky130_fd_sc_hd__decap_3
XPHY_746 VGND VGND VPWR VPWR sky130_fd_sc_hd__decap_3
XPHY_757 VGND VGND VPWR VPWR sky130_fd_sc_hd__decap_3
XPHY_768 VGND VGND VPWR VPWR sky130_fd_sc_hd__decap_3
XPHY_1367 VGND VGND VPWR VPWR sky130_fd_sc_hd__decap_3
XPHY_1356 VGND VGND VPWR VPWR sky130_fd_sc_hd__decap_3
XPHY_1345 VGND VGND VPWR VPWR sky130_fd_sc_hd__decap_3
XPHY_1334 VGND VGND VPWR VPWR sky130_fd_sc_hd__decap_3
XFILLER_302_3 VGND VGND VPWR VPWR sky130_fd_sc_hd__decap_12
XFILLER_135_3 VGND VGND VPWR VPWR sky130_fd_sc_hd__decap_12
XFILLER_12_957 VGND VGND VPWR VPWR sky130_fd_sc_hd__decap_12
XFILLER_8_906 VGND VGND VPWR VPWR sky130_fd_sc_hd__decap_12
XPHY_1378 VGND VPWR sky130_fd_sc_hd__tapvpwrvgnd_1
XPHY_1389 VGND VPWR sky130_fd_sc_hd__tapvpwrvgnd_1
XPHY_779 VGND VGND VPWR VPWR sky130_fd_sc_hd__decap_3
XFILLER_250_969 VGND VGND VPWR VPWR sky130_fd_sc_hd__decap_4
XFILLER_148_918 VGND VGND VPWR VPWR sky130_fd_sc_hd__decap_12
XPHY_1890 VGND VPWR sky130_fd_sc_hd__tapvpwrvgnd_1
XFILLER_320_918 VGND VGND VPWR VPWR sky130_fd_sc_hd__decap_12
XFILLER_171_954 VGND VGND VPWR VPWR sky130_fd_sc_hd__decap_6
XFILLER_7_961 VGND VGND VPWR VPWR sky130_fd_sc_hd__decap_12
XFILLER_50_3 VGND VGND VPWR VPWR sky130_fd_sc_hd__decap_12
XFILLER_226_933 VGND VGND VPWR VPWR sky130_fd_sc_hd__decap_12
XFILLER_139_918 VGND VGND VPWR VPWR sky130_fd_sc_hd__decap_12
XFILLER_311_918 VGND VGND VPWR VPWR sky130_fd_sc_hd__decap_12
XFILLER_69_27 VGND VGND VPWR VPWR sky130_fd_sc_hd__decap_12
XFILLER_85_15 VGND VGND VPWR VPWR sky130_fd_sc_hd__decap_12
XPHY_598 VGND VGND VPWR VPWR sky130_fd_sc_hd__decap_3
XPHY_587 VGND VGND VPWR VPWR sky130_fd_sc_hd__decap_3
XPHY_576 VGND VGND VPWR VPWR sky130_fd_sc_hd__decap_3
XPHY_565 VGND VGND VPWR VPWR sky130_fd_sc_hd__decap_3
XPHY_554 VGND VGND VPWR VPWR sky130_fd_sc_hd__decap_3
XPHY_543 VGND VGND VPWR VPWR sky130_fd_sc_hd__decap_3
XPHY_532 VGND VGND VPWR VPWR sky130_fd_sc_hd__decap_3
XPHY_521 VGND VGND VPWR VPWR sky130_fd_sc_hd__decap_3
XPHY_510 VGND VGND VPWR VPWR sky130_fd_sc_hd__decap_3
XFILLER_252_3 VGND VGND VPWR VPWR sky130_fd_sc_hd__decap_12
XPHY_1175 VGND VGND VPWR VPWR sky130_fd_sc_hd__decap_3
XPHY_1164 VGND VGND VPWR VPWR sky130_fd_sc_hd__decap_3
XFILLER_232_969 VGND VGND VPWR VPWR sky130_fd_sc_hd__decap_4
XPHY_1153 VGND VGND VPWR VPWR sky130_fd_sc_hd__decap_3
XPHY_1142 VGND VGND VPWR VPWR sky130_fd_sc_hd__decap_3
XPHY_1131 VGND VGND VPWR VPWR sky130_fd_sc_hd__decap_3
XPHY_1120 VGND VGND VPWR VPWR sky130_fd_sc_hd__decap_3
XFILLER_34_30 VGND VGND VPWR VPWR sky130_fd_sc_hd__decap_8
XFILLER_302_918 VGND VGND VPWR VPWR sky130_fd_sc_hd__decap_12
XPHY_1197 VGND VGND VPWR VPWR sky130_fd_sc_hd__decap_3
XPHY_1186 VGND VGND VPWR VPWR sky130_fd_sc_hd__decap_3
XFILLER_153_954 VGND VGND VPWR VPWR sky130_fd_sc_hd__decap_6
XFILLER_208_933 VGND VGND VPWR VPWR sky130_fd_sc_hd__decap_12
XFILLER_98_3 VGND VGND VPWR VPWR sky130_fd_sc_hd__decap_12
XFILLER_90_930 VGND VGND VPWR VPWR sky130_fd_sc_hd__fill_2
XFILLER_277_39 VGND VGND VPWR VPWR sky130_fd_sc_hd__fill_2
XFILLER_293_27 VGND VGND VPWR VPWR sky130_fd_sc_hd__decap_12
XFILLER_81_930 VGND VGND VPWR VPWR sky130_fd_sc_hd__decap_12
XFILLER_214_969 VGND VGND VPWR VPWR sky130_fd_sc_hd__decap_4
XFILLER_187_39 VGND VGND VPWR VPWR sky130_fd_sc_hd__fill_2
XFILLER_71_39 VGND VGND VPWR VPWR sky130_fd_sc_hd__fill_2
XFILLER_296_906 VGND VGND VPWR VPWR sky130_fd_sc_hd__decap_12
XFILLER_135_954 VGND VGND VPWR VPWR sky130_fd_sc_hd__decap_6
XFILLER_150_957 VGND VGND VPWR VPWR sky130_fd_sc_hd__decap_12
XFILLER_1_934 VGND VGND VPWR VPWR sky130_fd_sc_hd__decap_12
XFILLER_220_906 VGND VGND VPWR VPWR sky130_fd_sc_hd__decap_12
XFILLER_72_930 VGND VGND VPWR VPWR sky130_fd_sc_hd__fill_2
XPHY_395 VGND VGND VPWR VPWR sky130_fd_sc_hd__decap_3
XPHY_384 VGND VGND VPWR VPWR sky130_fd_sc_hd__decap_3
XPHY_373 VGND VGND VPWR VPWR sky130_fd_sc_hd__decap_3
XPHY_362 VGND VGND VPWR VPWR sky130_fd_sc_hd__decap_3
XPHY_351 VGND VGND VPWR VPWR sky130_fd_sc_hd__decap_3
XPHY_340 VGND VGND VPWR VPWR sky130_fd_sc_hd__decap_3
XFILLER_343_30 VGND VGND VPWR VPWR sky130_fd_sc_hd__decap_8
XFILLER_287_906 VGND VGND VPWR VPWR sky130_fd_sc_hd__decap_12
XFILLER_295_961 VGND VGND VPWR VPWR sky130_fd_sc_hd__decap_12
XFILLER_13_3 VGND VGND VPWR VPWR sky130_fd_sc_hd__decap_12
XFILLER_63_930 VGND VGND VPWR VPWR sky130_fd_sc_hd__decap_12
XFILLER_288_38 VGND VGND VPWR VPWR sky130_fd_sc_hd__decap_3
XFILLER_288_27 VGND VGND VPWR VPWR sky130_fd_sc_hd__fill_2
XFILLER_211_906 VGND VGND VPWR VPWR sky130_fd_sc_hd__fill_2
XFILLER_278_906 VGND VGND VPWR VPWR sky130_fd_sc_hd__fill_2
XFILLER_117_954 VGND VGND VPWR VPWR sky130_fd_sc_hd__decap_6
XFILLER_132_957 VGND VGND VPWR VPWR sky130_fd_sc_hd__decap_12
XFILLER_202_906 VGND VGND VPWR VPWR sky130_fd_sc_hd__decap_12
XFILLER_198_38 VGND VGND VPWR VPWR sky130_fd_sc_hd__decap_3
XFILLER_198_27 VGND VGND VPWR VPWR sky130_fd_sc_hd__fill_2
XFILLER_54_930 VGND VGND VPWR VPWR sky130_fd_sc_hd__fill_2
XFILLER_82_27 VGND VGND VPWR VPWR sky130_fd_sc_hd__fill_2
XFILLER_82_38 VGND VGND VPWR VPWR sky130_fd_sc_hd__decap_3
XFILLER_215_3 VGND VGND VPWR VPWR sky130_fd_sc_hd__decap_12
XFILLER_269_906 VGND VGND VPWR VPWR sky130_fd_sc_hd__decap_12
XFILLER_277_961 VGND VGND VPWR VPWR sky130_fd_sc_hd__decap_12
XFILLER_45_930 VGND VGND VPWR VPWR sky130_fd_sc_hd__decap_12
XFILLER_60_933 VGND VGND VPWR VPWR sky130_fd_sc_hd__decap_12
XPHY_170 VGND VGND VPWR VPWR sky130_fd_sc_hd__decap_3
XFILLER_338_30 VGND VGND VPWR VPWR sky130_fd_sc_hd__decap_8
XFILLER_201_961 VGND VGND VPWR VPWR sky130_fd_sc_hd__decap_12
XPHY_192 VGND VGND VPWR VPWR sky130_fd_sc_hd__decap_3
XPHY_181 VGND VGND VPWR VPWR sky130_fd_sc_hd__decap_3
XFILLER_114_957 VGND VGND VPWR VPWR sky130_fd_sc_hd__decap_12
XFILLER_299_15 VGND VGND VPWR VPWR sky130_fd_sc_hd__decap_12
XFILLER_283_942 VGND VGND VPWR VPWR sky130_fd_sc_hd__decap_12
XFILLER_36_930 VGND VGND VPWR VPWR sky130_fd_sc_hd__fill_2
XFILLER_51_922 VGND VGND VPWR VPWR sky130_fd_sc_hd__decap_12
XFILLER_338_910 VGND VGND VPWR VPWR sky130_fd_sc_hd__decap_12
XFILLER_248_30 VGND VGND VPWR VPWR sky130_fd_sc_hd__decap_8
XPHY_1719 VGND VPWR sky130_fd_sc_hd__tapvpwrvgnd_1
XPHY_1708 VGND VPWR sky130_fd_sc_hd__tapvpwrvgnd_1
XFILLER_77_27 VGND VGND VPWR VPWR sky130_fd_sc_hd__decap_12
XFILLER_259_961 VGND VGND VPWR VPWR sky130_fd_sc_hd__decap_12
XFILLER_93_15 VGND VGND VPWR VPWR sky130_fd_sc_hd__decap_12
XFILLER_27_930 VGND VGND VPWR VPWR sky130_fd_sc_hd__decap_12
XFILLER_332_3 VGND VGND VPWR VPWR sky130_fd_sc_hd__decap_12
XFILLER_165_3 VGND VGND VPWR VPWR sky130_fd_sc_hd__decap_12
XFILLER_42_933 VGND VGND VPWR VPWR sky130_fd_sc_hd__decap_12
XFILLER_329_954 VGND VGND VPWR VPWR sky130_fd_sc_hd__decap_6
XFILLER_158_30 VGND VGND VPWR VPWR sky130_fd_sc_hd__decap_8
XFILLER_42_30 VGND VGND VPWR VPWR sky130_fd_sc_hd__decap_8
XANTENNA_SRAM_1_din0[22] mgmt_wdata[22] VGND VGND VPWR VPWR sky130_fd_sc_hd__diode_2
XFILLER_280_945 VGND VGND VPWR VPWR sky130_fd_sc_hd__decap_12
XFILLER_265_942 VGND VGND VPWR VPWR sky130_fd_sc_hd__decap_12
XFILLER_18_930 VGND VGND VPWR VPWR sky130_fd_sc_hd__fill_2
XFILLER_80_3 VGND VGND VPWR VPWR sky130_fd_sc_hd__decap_12
XFILLER_285_39 VGND VGND VPWR VPWR sky130_fd_sc_hd__fill_2
XPHY_1505 VGND VPWR sky130_fd_sc_hd__tapvpwrvgnd_1
XPHY_939 VGND VGND VPWR VPWR sky130_fd_sc_hd__decap_3
XPHY_928 VGND VGND VPWR VPWR sky130_fd_sc_hd__decap_3
XPHY_917 VGND VGND VPWR VPWR sky130_fd_sc_hd__decap_3
XPHY_906 VGND VGND VPWR VPWR sky130_fd_sc_hd__decap_3
XFILLER_24_933 VGND VGND VPWR VPWR sky130_fd_sc_hd__decap_12
XFILLER_326_957 VGND VGND VPWR VPWR sky130_fd_sc_hd__decap_12
XPHY_1538 VGND VPWR sky130_fd_sc_hd__tapvpwrvgnd_1
XPHY_1527 VGND VPWR sky130_fd_sc_hd__tapvpwrvgnd_1
XPHY_1516 VGND VPWR sky130_fd_sc_hd__tapvpwrvgnd_1
XFILLER_195_39 VGND VGND VPWR VPWR sky130_fd_sc_hd__fill_2
XFILLER_192_930 VGND VGND VPWR VPWR sky130_fd_sc_hd__fill_2
XPHY_1549 VGND VPWR sky130_fd_sc_hd__tapvpwrvgnd_1
XFILLER_88_15 VGND VGND VPWR VPWR sky130_fd_sc_hd__decap_12
XFILLER_282_3 VGND VGND VPWR VPWR sky130_fd_sc_hd__decap_12
XFILLER_262_945 VGND VGND VPWR VPWR sky130_fd_sc_hd__decap_12
XFILLER_247_942 VGND VGND VPWR VPWR sky130_fd_sc_hd__decap_12
XFILLER_30_969 VGND VGND VPWR VPWR sky130_fd_sc_hd__decap_4
XFILLER_183_930 VGND VGND VPWR VPWR sky130_fd_sc_hd__decap_12
XFILLER_308_957 VGND VGND VPWR VPWR sky130_fd_sc_hd__decap_12
XFILLER_296_38 VGND VGND VPWR VPWR sky130_fd_sc_hd__decap_3
XFILLER_296_27 VGND VGND VPWR VPWR sky130_fd_sc_hd__fill_2
XFILLER_174_930 VGND VGND VPWR VPWR sky130_fd_sc_hd__fill_2
XFILLER_88_969 VGND VGND VPWR VPWR sky130_fd_sc_hd__decap_4
XFILLER_244_945 VGND VGND VPWR VPWR sky130_fd_sc_hd__decap_12
XFILLER_229_942 VGND VGND VPWR VPWR sky130_fd_sc_hd__decap_12
XPHY_1357 VGND VGND VPWR VPWR sky130_fd_sc_hd__decap_3
XPHY_1346 VGND VGND VPWR VPWR sky130_fd_sc_hd__decap_3
XPHY_1335 VGND VGND VPWR VPWR sky130_fd_sc_hd__decap_3
XPHY_1324 VGND VGND VPWR VPWR sky130_fd_sc_hd__decap_3
XPHY_1313 VGND VGND VPWR VPWR sky130_fd_sc_hd__decap_3
XPHY_1302 VGND VGND VPWR VPWR sky130_fd_sc_hd__decap_3
XFILLER_90_38 VGND VGND VPWR VPWR sky130_fd_sc_hd__decap_3
XFILLER_90_27 VGND VGND VPWR VPWR sky130_fd_sc_hd__fill_2
XPHY_725 VGND VGND VPWR VPWR sky130_fd_sc_hd__decap_3
XPHY_714 VGND VGND VPWR VPWR sky130_fd_sc_hd__decap_3
XFILLER_12_969 VGND VGND VPWR VPWR sky130_fd_sc_hd__decap_4
XPHY_703 VGND VGND VPWR VPWR sky130_fd_sc_hd__decap_3
XFILLER_8_918 VGND VGND VPWR VPWR sky130_fd_sc_hd__decap_12
XPHY_736 VGND VGND VPWR VPWR sky130_fd_sc_hd__decap_3
XPHY_747 VGND VGND VPWR VPWR sky130_fd_sc_hd__decap_3
XPHY_758 VGND VGND VPWR VPWR sky130_fd_sc_hd__decap_3
XPHY_769 VGND VGND VPWR VPWR sky130_fd_sc_hd__decap_3
XPHY_1368 VGND VGND VPWR VPWR sky130_fd_sc_hd__decap_3
XFILLER_180_933 VGND VGND VPWR VPWR sky130_fd_sc_hd__decap_12
XFILLER_128_3 VGND VGND VPWR VPWR sky130_fd_sc_hd__decap_12
XPHY_1379 VGND VPWR sky130_fd_sc_hd__tapvpwrvgnd_1
XFILLER_94_906 VGND VGND VPWR VPWR sky130_fd_sc_hd__decap_12
XFILLER_0_25 VGND VGND VPWR VPWR sky130_fd_sc_hd__fill_2
XPHY_1891 VGND VPWR sky130_fd_sc_hd__tapvpwrvgnd_1
XPHY_1880 VGND VPWR sky130_fd_sc_hd__tapvpwrvgnd_1
XFILLER_156_930 VGND VGND VPWR VPWR sky130_fd_sc_hd__fill_2
XFILLER_43_3 VGND VGND VPWR VPWR sky130_fd_sc_hd__decap_12
XFILLER_226_945 VGND VGND VPWR VPWR sky130_fd_sc_hd__decap_12
XFILLER_93_961 VGND VGND VPWR VPWR sky130_fd_sc_hd__decap_12
XFILLER_85_906 VGND VGND VPWR VPWR sky130_fd_sc_hd__decap_12
XFILLER_100_15 VGND VGND VPWR VPWR sky130_fd_sc_hd__decap_12
XFILLER_256_30 VGND VGND VPWR VPWR sky130_fd_sc_hd__decap_8
XFILLER_162_933 VGND VGND VPWR VPWR sky130_fd_sc_hd__decap_12
XFILLER_147_930 VGND VGND VPWR VPWR sky130_fd_sc_hd__decap_12
XFILLER_69_39 VGND VGND VPWR VPWR sky130_fd_sc_hd__fill_2
XFILLER_76_906 VGND VGND VPWR VPWR sky130_fd_sc_hd__decap_12
XFILLER_85_27 VGND VGND VPWR VPWR sky130_fd_sc_hd__decap_12
XPHY_500 VGND VGND VPWR VPWR sky130_fd_sc_hd__decap_3
XPHY_599 VGND VGND VPWR VPWR sky130_fd_sc_hd__decap_3
XPHY_588 VGND VGND VPWR VPWR sky130_fd_sc_hd__decap_3
XPHY_577 VGND VGND VPWR VPWR sky130_fd_sc_hd__decap_3
XPHY_566 VGND VGND VPWR VPWR sky130_fd_sc_hd__decap_3
XPHY_555 VGND VGND VPWR VPWR sky130_fd_sc_hd__decap_3
XPHY_544 VGND VGND VPWR VPWR sky130_fd_sc_hd__decap_3
XPHY_533 VGND VGND VPWR VPWR sky130_fd_sc_hd__decap_3
XPHY_522 VGND VGND VPWR VPWR sky130_fd_sc_hd__decap_3
XPHY_1198 VGND VGND VPWR VPWR sky130_fd_sc_hd__decap_3
XPHY_511 VGND VGND VPWR VPWR sky130_fd_sc_hd__decap_3
XPHY_1187 VGND VGND VPWR VPWR sky130_fd_sc_hd__decap_3
XFILLER_245_3 VGND VGND VPWR VPWR sky130_fd_sc_hd__decap_12
XPHY_1176 VGND VGND VPWR VPWR sky130_fd_sc_hd__decap_3
XPHY_1165 VGND VGND VPWR VPWR sky130_fd_sc_hd__decap_3
XPHY_1154 VGND VGND VPWR VPWR sky130_fd_sc_hd__decap_3
XPHY_1143 VGND VGND VPWR VPWR sky130_fd_sc_hd__decap_3
XPHY_1132 VGND VGND VPWR VPWR sky130_fd_sc_hd__decap_3
XPHY_1121 VGND VGND VPWR VPWR sky130_fd_sc_hd__decap_3
XPHY_1110 VGND VGND VPWR VPWR sky130_fd_sc_hd__decap_3
XFILLER_138_930 VGND VGND VPWR VPWR sky130_fd_sc_hd__fill_2
XFILLER_50_30 VGND VGND VPWR VPWR sky130_fd_sc_hd__decap_8
XFILLER_166_30 VGND VGND VPWR VPWR sky130_fd_sc_hd__decap_8
XFILLER_310_930 VGND VGND VPWR VPWR sky130_fd_sc_hd__fill_2
XFILLER_208_945 VGND VGND VPWR VPWR sky130_fd_sc_hd__decap_12
XFILLER_75_961 VGND VGND VPWR VPWR sky130_fd_sc_hd__decap_12
XANTENNA_BUF0_8_A BUF_4/X VGND VGND VPWR VPWR sky130_fd_sc_hd__diode_2
XFILLER_293_39 VGND VGND VPWR VPWR sky130_fd_sc_hd__fill_2
XFILLER_144_933 VGND VGND VPWR VPWR sky130_fd_sc_hd__decap_12
XFILLER_129_930 VGND VGND VPWR VPWR sky130_fd_sc_hd__decap_12
XFILLER_301_930 VGND VGND VPWR VPWR sky130_fd_sc_hd__decap_12
XFILLER_58_906 VGND VGND VPWR VPWR sky130_fd_sc_hd__decap_12
XFILLER_81_942 VGND VGND VPWR VPWR sky130_fd_sc_hd__decap_12
XFILLER_296_918 VGND VGND VPWR VPWR sky130_fd_sc_hd__decap_12
XFILLER_96_15 VGND VGND VPWR VPWR sky130_fd_sc_hd__decap_12
XFILLER_195_3 VGND VGND VPWR VPWR sky130_fd_sc_hd__decap_12
XFILLER_150_969 VGND VGND VPWR VPWR sky130_fd_sc_hd__decap_4
XFILLER_1_946 VGND VGND VPWR VPWR sky130_fd_sc_hd__decap_12
XFILLER_49_906 VGND VGND VPWR VPWR sky130_fd_sc_hd__fill_2
XFILLER_57_961 VGND VGND VPWR VPWR sky130_fd_sc_hd__decap_12
XFILLER_220_918 VGND VGND VPWR VPWR sky130_fd_sc_hd__decap_12
XPHY_352 VGND VGND VPWR VPWR sky130_fd_sc_hd__decap_3
XPHY_341 VGND VGND VPWR VPWR sky130_fd_sc_hd__decap_3
XPHY_330 VGND VGND VPWR VPWR sky130_fd_sc_hd__decap_3
XPHY_396 VGND VGND VPWR VPWR sky130_fd_sc_hd__decap_3
XPHY_385 VGND VGND VPWR VPWR sky130_fd_sc_hd__decap_3
XPHY_374 VGND VGND VPWR VPWR sky130_fd_sc_hd__decap_3
XPHY_363 VGND VGND VPWR VPWR sky130_fd_sc_hd__decap_3
XFILLER_126_933 VGND VGND VPWR VPWR sky130_fd_sc_hd__decap_12
XFILLER_287_918 VGND VGND VPWR VPWR sky130_fd_sc_hd__decap_12
XFILLER_63_942 VGND VGND VPWR VPWR sky130_fd_sc_hd__decap_12
XFILLER_132_969 VGND VGND VPWR VPWR sky130_fd_sc_hd__decap_4
XFILLER_39_961 VGND VGND VPWR VPWR sky130_fd_sc_hd__decap_12
XFILLER_202_918 VGND VGND VPWR VPWR sky130_fd_sc_hd__decap_12
XFILLER_110_3 VGND VGND VPWR VPWR sky130_fd_sc_hd__decap_12
XFILLER_108_933 VGND VGND VPWR VPWR sky130_fd_sc_hd__decap_12
XFILLER_269_918 VGND VGND VPWR VPWR sky130_fd_sc_hd__decap_12
XFILLER_208_3 VGND VGND VPWR VPWR sky130_fd_sc_hd__decap_12
XFILLER_45_942 VGND VGND VPWR VPWR sky130_fd_sc_hd__decap_12
XPHY_193 VGND VGND VPWR VPWR sky130_fd_sc_hd__decap_3
XPHY_182 VGND VGND VPWR VPWR sky130_fd_sc_hd__decap_3
XFILLER_60_945 VGND VGND VPWR VPWR sky130_fd_sc_hd__decap_12
XPHY_160 VGND VGND VPWR VPWR sky130_fd_sc_hd__decap_3
XPHY_171 VGND VGND VPWR VPWR sky130_fd_sc_hd__decap_3
XFILLER_283_954 VGND VGND VPWR VPWR sky130_fd_sc_hd__decap_6
XFILLER_114_969 VGND VGND VPWR VPWR sky130_fd_sc_hd__decap_4
XFILLER_28_909 VGND VGND VPWR VPWR sky130_fd_sc_hd__decap_12
XFILLER_299_27 VGND VGND VPWR VPWR sky130_fd_sc_hd__decap_12
XFILLER_196_906 VGND VGND VPWR VPWR sky130_fd_sc_hd__decap_12
XFILLER_51_934 VGND VGND VPWR VPWR sky130_fd_sc_hd__decap_12
XFILLER_338_933 VGND VGND VPWR VPWR sky130_fd_sc_hd__decap_12
XFILLER_338_922 VGND VGND VPWR VPWR sky130_fd_sc_hd__decap_8
XPHY_1709 VGND VPWR sky130_fd_sc_hd__tapvpwrvgnd_1
XFILLER_264_30 VGND VGND VPWR VPWR sky130_fd_sc_hd__decap_8
XFILLER_120_906 VGND VGND VPWR VPWR sky130_fd_sc_hd__decap_12
XFILLER_77_39 VGND VGND VPWR VPWR sky130_fd_sc_hd__fill_2
XFILLER_93_27 VGND VGND VPWR VPWR sky130_fd_sc_hd__decap_12
XFILLER_27_942 VGND VGND VPWR VPWR sky130_fd_sc_hd__decap_12
XFILLER_325_3 VGND VGND VPWR VPWR sky130_fd_sc_hd__decap_12
XFILLER_187_906 VGND VGND VPWR VPWR sky130_fd_sc_hd__decap_12
XFILLER_158_3 VGND VGND VPWR VPWR sky130_fd_sc_hd__decap_12
XFILLER_42_945 VGND VGND VPWR VPWR sky130_fd_sc_hd__decap_12
XFILLER_195_961 VGND VGND VPWR VPWR sky130_fd_sc_hd__decap_12
XFILLER_174_30 VGND VGND VPWR VPWR sky130_fd_sc_hd__decap_4
XANTENNA_SRAM_1_din0[21] mgmt_wdata[21] VGND VGND VPWR VPWR sky130_fd_sc_hd__diode_2
XFILLER_265_954 VGND VGND VPWR VPWR sky130_fd_sc_hd__decap_6
XFILLER_111_906 VGND VGND VPWR VPWR sky130_fd_sc_hd__decap_12
XFILLER_3_25 VGND VGND VPWR VPWR sky130_fd_sc_hd__fill_2
XFILLER_280_957 VGND VGND VPWR VPWR sky130_fd_sc_hd__decap_12
XFILLER_178_906 VGND VGND VPWR VPWR sky130_fd_sc_hd__decap_12
XFILLER_73_3 VGND VGND VPWR VPWR sky130_fd_sc_hd__decap_12
XFILLER_102_906 VGND VGND VPWR VPWR sky130_fd_sc_hd__decap_12
XFILLER_103_15 VGND VGND VPWR VPWR sky130_fd_sc_hd__decap_12
XPHY_1539 VGND VPWR sky130_fd_sc_hd__tapvpwrvgnd_1
XPHY_1528 VGND VPWR sky130_fd_sc_hd__tapvpwrvgnd_1
XPHY_1517 VGND VPWR sky130_fd_sc_hd__tapvpwrvgnd_1
XPHY_1506 VGND VPWR sky130_fd_sc_hd__tapvpwrvgnd_1
XFILLER_169_906 VGND VGND VPWR VPWR sky130_fd_sc_hd__decap_12
XPHY_929 VGND VGND VPWR VPWR sky130_fd_sc_hd__decap_3
XPHY_918 VGND VGND VPWR VPWR sky130_fd_sc_hd__decap_3
XPHY_907 VGND VGND VPWR VPWR sky130_fd_sc_hd__decap_3
XFILLER_24_945 VGND VGND VPWR VPWR sky130_fd_sc_hd__decap_12
XFILLER_341_906 VGND VGND VPWR VPWR sky130_fd_sc_hd__decap_12
XFILLER_326_969 VGND VGND VPWR VPWR sky130_fd_sc_hd__decap_4
XFILLER_177_961 VGND VGND VPWR VPWR sky130_fd_sc_hd__decap_12
XFILLER_88_27 VGND VGND VPWR VPWR sky130_fd_sc_hd__fill_2
XFILLER_101_961 VGND VGND VPWR VPWR sky130_fd_sc_hd__decap_12
XFILLER_88_38 VGND VGND VPWR VPWR sky130_fd_sc_hd__decap_3
XFILLER_275_3 VGND VGND VPWR VPWR sky130_fd_sc_hd__decap_12
XFILLER_262_957 VGND VGND VPWR VPWR sky130_fd_sc_hd__decap_12
XFILLER_247_954 VGND VGND VPWR VPWR sky130_fd_sc_hd__decap_6
XFILLER_183_942 VGND VGND VPWR VPWR sky130_fd_sc_hd__decap_12
XFILLER_332_906 VGND VGND VPWR VPWR sky130_fd_sc_hd__decap_12
XFILLER_323_906 VGND VGND VPWR VPWR sky130_fd_sc_hd__decap_12
XFILLER_308_969 VGND VGND VPWR VPWR sky130_fd_sc_hd__decap_4
XFILLER_159_961 VGND VGND VPWR VPWR sky130_fd_sc_hd__decap_12
XFILLER_331_961 VGND VGND VPWR VPWR sky130_fd_sc_hd__decap_12
XFILLER_244_957 VGND VGND VPWR VPWR sky130_fd_sc_hd__decap_12
XFILLER_229_954 VGND VGND VPWR VPWR sky130_fd_sc_hd__decap_6
XPHY_1369 VGND VGND VPWR VPWR sky130_fd_sc_hd__decap_3
XPHY_1358 VGND VGND VPWR VPWR sky130_fd_sc_hd__decap_3
XPHY_1347 VGND VGND VPWR VPWR sky130_fd_sc_hd__decap_3
XPHY_1336 VGND VGND VPWR VPWR sky130_fd_sc_hd__decap_3
XPHY_1325 VGND VGND VPWR VPWR sky130_fd_sc_hd__decap_3
XPHY_1314 VGND VGND VPWR VPWR sky130_fd_sc_hd__decap_3
XPHY_1303 VGND VGND VPWR VPWR sky130_fd_sc_hd__decap_3
XPHY_715 VGND VGND VPWR VPWR sky130_fd_sc_hd__decap_3
XPHY_704 VGND VGND VPWR VPWR sky130_fd_sc_hd__decap_3
XPHY_726 VGND VGND VPWR VPWR sky130_fd_sc_hd__decap_3
XPHY_737 VGND VGND VPWR VPWR sky130_fd_sc_hd__decap_3
XPHY_748 VGND VGND VPWR VPWR sky130_fd_sc_hd__decap_3
XPHY_759 VGND VGND VPWR VPWR sky130_fd_sc_hd__decap_3
XFILLER_314_906 VGND VGND VPWR VPWR sky130_fd_sc_hd__decap_12
XFILLER_180_945 VGND VGND VPWR VPWR sky130_fd_sc_hd__decap_12
XFILLER_99_15 VGND VGND VPWR VPWR sky130_fd_sc_hd__decap_12
XFILLER_3_3 VGND VGND VPWR VPWR sky130_fd_sc_hd__decap_12
XFILLER_94_918 VGND VGND VPWR VPWR sky130_fd_sc_hd__decap_12
XFILLER_48_30 VGND VGND VPWR VPWR sky130_fd_sc_hd__decap_8
XFILLER_0_37 VGND VGND VPWR VPWR sky130_fd_sc_hd__fill_2
XPHY_1892 VGND VPWR sky130_fd_sc_hd__tapvpwrvgnd_1
XPHY_1881 VGND VPWR sky130_fd_sc_hd__tapvpwrvgnd_1
XPHY_1870 VGND VPWR sky130_fd_sc_hd__tapvpwrvgnd_1
XFILLER_305_906 VGND VGND VPWR VPWR sky130_fd_sc_hd__decap_12
XFILLER_7_930 VGND VGND VPWR VPWR sky130_fd_sc_hd__decap_12
XFILLER_313_961 VGND VGND VPWR VPWR sky130_fd_sc_hd__decap_12
XFILLER_36_3 VGND VGND VPWR VPWR sky130_fd_sc_hd__decap_12
XFILLER_85_918 VGND VGND VPWR VPWR sky130_fd_sc_hd__decap_12
XFILLER_226_957 VGND VGND VPWR VPWR sky130_fd_sc_hd__decap_12
XFILLER_100_38 VGND VGND VPWR VPWR sky130_fd_sc_hd__decap_3
XFILLER_100_27 VGND VGND VPWR VPWR sky130_fd_sc_hd__fill_2
XFILLER_162_945 VGND VGND VPWR VPWR sky130_fd_sc_hd__decap_12
XFILLER_147_942 VGND VGND VPWR VPWR sky130_fd_sc_hd__decap_12
XFILLER_272_30 VGND VGND VPWR VPWR sky130_fd_sc_hd__decap_8
XFILLER_76_918 VGND VGND VPWR VPWR sky130_fd_sc_hd__decap_12
XFILLER_85_39 VGND VGND VPWR VPWR sky130_fd_sc_hd__fill_2
XPHY_534 VGND VGND VPWR VPWR sky130_fd_sc_hd__decap_3
XPHY_523 VGND VGND VPWR VPWR sky130_fd_sc_hd__decap_3
XPHY_512 VGND VGND VPWR VPWR sky130_fd_sc_hd__decap_3
XPHY_501 VGND VGND VPWR VPWR sky130_fd_sc_hd__decap_3
XPHY_589 VGND VGND VPWR VPWR sky130_fd_sc_hd__decap_3
XPHY_578 VGND VGND VPWR VPWR sky130_fd_sc_hd__decap_3
XPHY_567 VGND VGND VPWR VPWR sky130_fd_sc_hd__decap_3
XPHY_556 VGND VGND VPWR VPWR sky130_fd_sc_hd__decap_3
XPHY_545 VGND VGND VPWR VPWR sky130_fd_sc_hd__decap_3
XPHY_1199 VGND VGND VPWR VPWR sky130_fd_sc_hd__decap_3
XPHY_1188 VGND VGND VPWR VPWR sky130_fd_sc_hd__decap_3
XPHY_1177 VGND VGND VPWR VPWR sky130_fd_sc_hd__decap_3
XPHY_1166 VGND VGND VPWR VPWR sky130_fd_sc_hd__decap_3
XFILLER_238_3 VGND VGND VPWR VPWR sky130_fd_sc_hd__decap_12
XPHY_1155 VGND VGND VPWR VPWR sky130_fd_sc_hd__decap_3
XPHY_1144 VGND VGND VPWR VPWR sky130_fd_sc_hd__decap_3
XPHY_1133 VGND VGND VPWR VPWR sky130_fd_sc_hd__decap_3
XPHY_1122 VGND VGND VPWR VPWR sky130_fd_sc_hd__decap_3
XPHY_1111 VGND VGND VPWR VPWR sky130_fd_sc_hd__decap_3
XPHY_1100 VGND VGND VPWR VPWR sky130_fd_sc_hd__decap_3
XFILLER_140_3 VGND VGND VPWR VPWR sky130_fd_sc_hd__decap_12
XFILLER_182_30 VGND VGND VPWR VPWR sky130_fd_sc_hd__decap_8