* SPICE NETLIST
***************************************

.SUBCKT drainOnly g s d b
.ENDS
***************************************
.SUBCKT condiode pin0 pin1
.ENDS
***************************************
.SUBCKT nvhv pin0 pin1 pin2 pin3
.ENDS
***************************************
.SUBCKT pvhv pin0 pin1 pin2 pin3
.ENDS
***************************************
.SUBCKT xcnwvc pin0 pin1 pin2
.ENDS
***************************************
.SUBCKT xcnwvc2 pin0 pin1 pin2
.ENDS
***************************************
.SUBCKT xchvnwc pin0 pin1 pin2
.ENDS
***************************************
.SUBCKT Dpar d0 d1
.ENDS
***************************************
.SUBCKT xcmvpp pin0 pin1 pin2
.ENDS
***************************************
.SUBCKT xcmvpp_2 pin0 pin1 pin2
.ENDS
***************************************
.SUBCKT xcmvpp2_nhvnative10x4 pin0 pin1 pin2
.ENDS
***************************************
.SUBCKT xcmvpp2_phv5x4 pin0 pin1 pin2
.ENDS
***************************************
.SUBCKT xcmvpp_hd5_atlas_fingercap2_l5 pin0 pin1 pin2
.ENDS
***************************************
.SUBCKT xcmvpp_hd5_atlas_wafflecap2 pin0 pin1 pin2
.ENDS
***************************************
.SUBCKT xcmvpp_hd5_atlas_wafflecap1 pin0 pin1 pin2
.ENDS
***************************************
.SUBCKT xcmvpp_hd5_atlas_fingercap_l40 pin0 pin1 pin2
.ENDS
***************************************
.SUBCKT xcmvpp_hd5_atlas_fingercap_l20 pin0 pin1 pin2
.ENDS
***************************************
.SUBCKT xcmvpp_hd5_atlas_fingercap_l10 pin0 pin1 pin2
.ENDS
***************************************
.SUBCKT xcmvpp_hd5_atlas_fingercap_l5 pin0 pin1 pin2
.ENDS
***************************************
.SUBCKT xcmvpp_hd5_5x2_met5pullin pin0 pin1 pin2
.ENDS
***************************************
.SUBCKT xcmvpp_hd5_5x2 pin0 pin1 pin2
.ENDS
***************************************
.SUBCKT xcmvpp_hd5_5x1_met5pullin pin0 pin1 pin2
.ENDS
***************************************
.SUBCKT xcmvpp_hd5_5x1 pin0 pin1 pin2
.ENDS
***************************************
.SUBCKT xcmvpp_hd5_4x2 pin0 pin1 pin2
.ENDS
***************************************
.SUBCKT xcmvpp_hd5_4x1 pin0 pin1 pin2
.ENDS
***************************************
.SUBCKT xcmvpp_hd5_3x2 pin0 pin1 pin2
.ENDS
***************************************
.SUBCKT xcmvpp_hd5_3x1 pin0 pin1 pin2
.ENDS
***************************************
.SUBCKT xcmvpp_hd5_2x2 pin0 pin1 pin2
.ENDS
***************************************
.SUBCKT xcmvpp_hd5_2x1 pin0 pin1 pin2
.ENDS
***************************************
.SUBCKT xcmvpp_hd5_1x2 pin0 pin1 pin2
.ENDS
***************************************
.SUBCKT xcmvpp_hd5_1x1 pin0 pin1 pin2
.ENDS
***************************************
.SUBCKT xcmvppx4_2xnhvnative10x4 pin0 pin1 pin2 pin3
.ENDS
***************************************
.SUBCKT xcmvpp11p5x11p7_polym50p4shield pin0 pin1 pin2 pin3
.ENDS
***************************************
.SUBCKT xcmvpp4p4x4p6_m3_lim5shield pin0 pin1 pin2 pin3
.ENDS
***************************************
.SUBCKT xcmvpp11p5x11p7_m3_lim5shield pin0 pin1 pin2 pin3
.ENDS
***************************************
.SUBCKT xcmvpp8p6x7p9_m3_lim5shield pin0 pin1 pin2 pin3
.ENDS
***************************************
.SUBCKT xcmvpp11p5x11p7_lim5shield pin0 pin1 pin2 pin3
.ENDS
***************************************
.SUBCKT xcmvpp11p5x11p7_polym5shield pin0 pin1 pin2 pin3
.ENDS
***************************************
.SUBCKT xcmvpp11p5x11p7_m5shield pin0 pin1 pin2 pin3
.ENDS
***************************************
.SUBCKT xcmvpp6p8x6p1_lim4shield pin0 pin1 pin2 pin3
.ENDS
***************************************
.SUBCKT xcmvpp6p8x6p1_polym4shield pin0 pin1 pin2 pin3
.ENDS
***************************************
.SUBCKT xcmvpp11p5x11p7_polym4shield pin0 pin1 pin2 pin3
.ENDS
***************************************
.SUBCKT xcmvpp11p5x11p7_m4shield pin0 pin1 pin2 pin3
.ENDS
***************************************
.SUBCKT xcmvpp1p8x1p8 pin0 pin1 pin2
.ENDS
***************************************
.SUBCKT xcmvpp4p4x4p6_m3_lishield pin0 pin1 pin2
.ENDS
***************************************
.SUBCKT xcmvpp8p6x7p9_m3_lishield pin0 pin1 pin2
.ENDS
***************************************
.SUBCKT xcmvpp11p5x11p7_m3_lishield pin0 pin1 pin2
.ENDS
***************************************
.SUBCKT xcmvpp11p5x11p7_m3shield c0 c1 b term4
.ENDS
***************************************
.SUBCKT xcmvpp8p6x7p9_m3shield c0 c1 b term4
.ENDS
***************************************
.SUBCKT xcmvpp4p4x4p6_m3shield c0 c1 b term4
.ENDS
***************************************
.SUBCKT xcmvpp1p8x1p8_m3shield c0 c1 b term4
.ENDS
***************************************
.SUBCKT xcmvpp11p5x11p7_m1m4m5shield pin0 pin1 pin2 pin3
.ENDS
***************************************
.SUBCKT xcmvpp11p5x11p7_m1m4 pin0 pin1 pin2
.ENDS
***************************************
.SUBCKT xcmvpp11p5x11p7_m1m2 pin0 pin1 pin2
.ENDS
***************************************
.SUBCKT xcmvpp4p4x4p6_m1m2 pin0 pin1 pin2
.ENDS
***************************************
.SUBCKT xcmvpp5 pin0 pin1 pin2
.ENDS
***************************************
.SUBCKT xcmvpp4 pin0 pin1 pin2
.ENDS
***************************************
.SUBCKT xcmvpp3 pin0 pin1 pin2
.ENDS
***************************************
.SUBCKT balun pin0 pin1 pin2 pin3 pin4 pin5
.ENDS
***************************************
.SUBCKT ind4 pin0 pin1 pin2 pin3
.ENDS
***************************************
.SUBCKT Probe probe conductor
.ENDS
***************************************
.SUBCKT sky130_fd_io__tk_em2o_cdns_55959141808653 2 3
** N=5 EP=2 IP=0 FDC=2
R0 2 4 0.01 m=1 $[short] $X=260 $Y=0 $D=266
R1 5 3 0.01 m=1 $[short] $X=1770 $Y=0 $D=266
.ENDS
***************************************
.SUBCKT sky130_fd_pr__hvdfl1sd2__example_55959141808202
** N=3 EP=0 IP=0 FDC=0
*.SEEDPROM
.ENDS
***************************************
.SUBCKT sky130_fd_pr__pfet_01v8__example_55959141808657 2 3 4
** N=4 EP=3 IP=0 FDC=1
*.SEEDPROM
M0 2 3 4 2 phv L=0.6 W=5 m=1 r=8.33333 a=3 p=11.2 mult=1 $X=0 $Y=0 $D=109
.ENDS
***************************************
.SUBCKT sky130_fd_io__tk_em2s_cdns_55959141808652 2 3
** N=4 EP=2 IP=0 FDC=2
R0 2 4 0.01 m=1 $[short] $X=260 $Y=0 $D=266
R1 4 3 0.01 m=1 $[short] $X=1770 $Y=0 $D=266
.ENDS
***************************************
.SUBCKT ICV_1
** N=3 EP=0 IP=6 FDC=0
*.SEEDPROM
.ENDS
***************************************
.SUBCKT sky130_fd_pr__res_generic_po__example_5595914180838 2 3
** N=3 EP=2 IP=0 FDC=1
R0 2 3 L=10.2 W=0.5 m=1 $[mrp1] $X=0 $Y=0 $D=250
.ENDS
***************************************
.SUBCKT sky130_fd_pr__res_generic_po__example_5595914180864 2 3
** N=3 EP=2 IP=0 FDC=1
R0 2 3 L=1.5 W=0.8 m=1 $[mrp1] $X=0 $Y=0 $D=250
.ENDS
***************************************
.SUBCKT sky130_fd_io__tk_em1s_cdns_5595914180859 2 3
** N=4 EP=2 IP=0 FDC=2
R0 2 4 0.01 m=1 $[short] $X=260 $Y=0 $D=265
R1 4 3 0.01 m=1 $[short] $X=1770 $Y=0 $D=265
.ENDS
***************************************
.SUBCKT sky130_fd_io__res250only_small PAD ROUT
** N=5 EP=2 IP=0 FDC=7
R0 PAD 4 L=0.17 W=2 m=1 $[mrp1] $X=300 $Y=10 $D=250
R1 4 5 L=10.07 W=2 m=1 $[mrp1] $X=640 $Y=10 $D=250
R2 5 ROUT L=0.17 W=2 m=1 $[mrp1] $X=10880 $Y=10 $D=250
R3 PAD 4 0.01 m=1 $[short] $X=380 $Y=0 $D=264
R4 5 ROUT 0.01 m=1 $[short] $X=10960 $Y=0 $D=264
R5 PAD 4 0.01 m=1 $[short] $X=380 $Y=5 $D=265
R6 5 ROUT 0.01 m=1 $[short] $X=10960 $Y=5 $D=265
.ENDS
***************************************
.SUBCKT sky130_fd_pr__res_bent_po__example_5595914180862 2 3
** N=3 EP=2 IP=0 FDC=1
R0 2 3 L=6 W=0.8 m=1 $[mrp1] $X=0 $Y=0 $D=250
.ENDS
***************************************
.SUBCKT sky130_fd_pr__res_bent_po__example_5595914180863 2 3
** N=3 EP=2 IP=0 FDC=1
R0 2 3 L=12 W=0.8 m=1 $[mrp1] $X=0 $Y=0 $D=250
.ENDS
***************************************
.SUBCKT sky130_fd_pr__model__pfet_highvoltage__example_55959141808616 2 3 4
** N=4 EP=3 IP=0 FDC=4
*.SEEDPROM
M0 4 3 2 2 phv L=0.6 W=1 m=1 r=1.66667 a=0.6 p=3.2 mult=1 $X=0 $Y=0 $D=109
M1 2 3 4 2 phv L=0.6 W=1 m=1 r=1.66667 a=0.6 p=3.2 mult=1 $X=880 $Y=0 $D=109
M2 4 3 2 2 phv L=0.6 W=1 m=1 r=1.66667 a=0.6 p=3.2 mult=1 $X=1760 $Y=0 $D=109
M3 2 3 4 2 phv L=0.6 W=1 m=1 r=1.66667 a=0.6 p=3.2 mult=1 $X=2640 $Y=0 $D=109
.ENDS
***************************************
.SUBCKT sky130_fd_io__hvsbt_inv_x4 1 2 IN OUT
** N=4 EP=4 IP=8 FDC=12
*.SEEDPROM
M0 OUT IN 1 1 nhv L=0.6 W=0.7 m=1 r=1.16667 a=0.42 p=2.6 mult=1 $X=595 $Y=720 $D=49
M1 1 IN OUT 1 nhv L=0.6 W=0.7 m=1 r=1.16667 a=0.42 p=2.6 mult=1 $X=1475 $Y=720 $D=49
M2 OUT IN 1 1 nhv L=0.6 W=0.7 m=1 r=1.16667 a=0.42 p=2.6 mult=1 $X=2355 $Y=720 $D=49
M3 1 IN OUT 1 nhv L=0.6 W=0.7 m=1 r=1.16667 a=0.42 p=2.6 mult=1 $X=3235 $Y=720 $D=49
X4 2 IN OUT sky130_fd_pr__model__pfet_highvoltage__example_55959141808616 $T=595 3410 1 0 $X=0 $Y=2080
X5 2 IN OUT sky130_fd_pr__model__pfet_highvoltage__example_55959141808616 $T=595 3750 0 0 $X=0 $Y=3420
.ENDS
***************************************
.SUBCKT sky130_fd_io__xres_tk_p_em1o_cdns_55959141808757 2 3
** N=5 EP=2 IP=0 FDC=2
R0 2 4 0.01 m=1 $[short] $X=130 $Y=0 $D=265
R1 5 3 0.01 m=1 $[short] $X=280 $Y=0 $D=265
.ENDS
***************************************
.SUBCKT sky130_fd_io__xres_p_em1c_cdns_55959141808753 2
** N=4 EP=1 IP=0 FDC=2
R0 2 3 0.01 m=1 $[short] $X=160 $Y=0 $D=265
R1 2 4 0.01 m=1 $[short] $X=160 $Y=250 $D=265
.ENDS
***************************************
.SUBCKT ICV_2 2 3
** N=3 EP=2 IP=5 FDC=4
X0 2 3 sky130_fd_io__xres_tk_p_em1o_cdns_55959141808757 $T=0 0 0 0 $X=0 $Y=0
X1 2 sky130_fd_io__xres_p_em1c_cdns_55959141808753 $T=-10 -770 0 0 $X=-10 $Y=-770
.ENDS
***************************************
.SUBCKT sky130_fd_pr__res_generic_nd__example_55959141808754 2 3
** N=3 EP=2 IP=0 FDC=1
*.SEEDPROM
R0 2 3 L=14 W=0.5 m=1 $[mrdn] $X=0 $Y=0 $D=246
.ENDS
***************************************
.SUBCKT ICV_3 2 3 4 5
** N=5 EP=4 IP=6 FDC=2
*.SEEDPROM
X0 2 3 sky130_fd_pr__res_generic_nd__example_55959141808754 $T=14000 -770 1 180 $X=-340 $Y=-900
X1 4 5 sky130_fd_pr__res_generic_nd__example_55959141808754 $T=0 0 0 0 $X=-340 $Y=-130
.ENDS
***************************************
.SUBCKT ICV_4 2 3 4 5 6 7 8 9
** N=9 EP=8 IP=10 FDC=4
*.SEEDPROM
X0 4 2 3 5 ICV_3 $T=0 -1540 0 0 $X=-340 $Y=-2440
X1 8 6 7 9 ICV_3 $T=0 0 0 0 $X=-340 $Y=-900
.ENDS
***************************************
.SUBCKT sky130_fd_io__xres_tk_p_em1o_cdns_55959141808758 2 3
** N=5 EP=2 IP=0 FDC=2
R0 2 4 0.01 m=1 $[short] $X=130 $Y=0 $D=265
R1 5 3 0.01 m=1 $[short] $X=280 $Y=0 $D=265
.ENDS
***************************************
.SUBCKT sky130_fd_io__xres_tk_p_em1c_cdns_55959141808760 2
** N=4 EP=1 IP=0 FDC=2
R0 2 3 0.01 m=1 $[short] $X=160 $Y=0 $D=265
R1 2 4 0.01 m=1 $[short] $X=160 $Y=640 $D=265
.ENDS
***************************************
.SUBCKT sky130_fd_io__xres_tk_p_em1c_cdns_55959141808761 2
** N=4 EP=1 IP=0 FDC=2
R0 2 3 0.01 m=1 $[short] $X=160 $Y=0 $D=265
R1 2 4 0.01 m=1 $[short] $X=160 $Y=250 $D=265
.ENDS
***************************************
.SUBCKT sky130_fd_pr__hvdfl1sd__example_55959141808700
** N=1 EP=0 IP=0 FDC=0
.ENDS
***************************************
.SUBCKT sky130_fd_pr__hvdfl1sd__example_55959141808338
** N=2 EP=0 IP=0 FDC=0
*.SEEDPROM
.ENDS
***************************************
.SUBCKT sky130_fd_pr__hvdfl1sd2__example_55959141808559
** N=1 EP=0 IP=0 FDC=0
.ENDS
***************************************
.SUBCKT sky130_fd_pr__dfl1sd2__example_55959141808666
** N=2 EP=0 IP=0 FDC=0
*.SEEDPROM
.ENDS
***************************************
.SUBCKT sky130_fd_pr__hvdfl1sd2__example_55959141808337
** N=2 EP=0 IP=0 FDC=0
*.SEEDPROM
.ENDS
***************************************
.SUBCKT sky130_fd_pr__via_pol1__example_55959141808273
** N=2 EP=0 IP=0 FDC=0
.ENDS
***************************************
.SUBCKT ICV_5
** N=3 EP=0 IP=4 FDC=0
.ENDS
***************************************
.SUBCKT ICV_6
** N=5 EP=0 IP=6 FDC=0
.ENDS
***************************************
.SUBCKT sky130_fd_io__xres_tk_p_em1c_cdns_55959141808759 1
** N=3 EP=1 IP=0 FDC=2
R0 1 2 0.01 m=1 $[short] $X=160 $Y=0 $D=265
R1 1 3 0.01 m=1 $[short] $X=160 $Y=280 $D=265
.ENDS
***************************************
.SUBCKT ICV_7 2 3 4
** N=4 EP=3 IP=5 FDC=4
X0 2 3 sky130_fd_io__xres_tk_p_em1o_cdns_55959141808757 $T=0 0 0 0 $X=0 $Y=0
X1 4 sky130_fd_io__xres_p_em1c_cdns_55959141808753 $T=-10 770 0 0 $X=-10 $Y=770
.ENDS
***************************************
.SUBCKT sky130_fd_io__xres_tk_p_em1o_cdns_55959141808756 1 2
** N=4 EP=2 IP=0 FDC=2
R0 2 3 0.01 m=1 $[short] $X=130 $Y=0 $D=265
R1 4 1 0.01 m=1 $[short] $X=280 $Y=0 $D=265
.ENDS
***************************************
.SUBCKT sky130_fd_pr__res_generic_nd__example_55959141808755 2 3
** N=3 EP=2 IP=0 FDC=1
*.SEEDPROM
R0 2 3 L=47 W=0.5 m=1 $[mrdn] $X=0 $Y=0 $D=246
.ENDS
***************************************
.SUBCKT ICV_8 2 3 4
** N=4 EP=3 IP=6 FDC=2
*.SEEDPROM
X0 2 3 sky130_fd_pr__res_generic_nd__example_55959141808754 $T=0 0 0 0 $X=-340 $Y=-130
X1 4 2 sky130_fd_pr__res_generic_nd__example_55959141808755 $T=-47510 0 0 0 $X=-47850 $Y=-130
.ENDS
***************************************
.SUBCKT ICV_9 2 3
** N=3 EP=2 IP=6 FDC=2
*.SEEDPROM
X0 2 2 sky130_fd_pr__res_generic_nd__example_55959141808754 $T=0 0 0 0 $X=-340 $Y=-130
X1 2 3 sky130_fd_pr__res_generic_nd__example_55959141808755 $T=14510 0 0 0 $X=14170 $Y=-130
.ENDS
***************************************
.SUBCKT ICV_10 2 3 4 5 6
** N=6 EP=5 IP=7 FDC=4
*.SEEDPROM
X0 3 4 2 ICV_8 $T=0 0 0 0 $X=-47850 $Y=-130
X1 5 6 ICV_9 $T=14000 770 1 180 $X=-47850 $Y=640
.ENDS
***************************************
.SUBCKT ICV_11 2 3 4 5 6 7 8 9 10 11
** N=11 EP=10 IP=12 FDC=8
*.SEEDPROM
X0 2 4 6 5 3 ICV_10 $T=0 0 0 0 $X=-47850 $Y=-130
X1 7 9 11 10 8 ICV_10 $T=0 1540 0 0 $X=-47850 $Y=1410
.ENDS
***************************************
.SUBCKT sky130_fd_io__xres2v2_rcfilter_lpfv2 1 VCC_IO 3 4 5 6 7 8 9 10 11 12 13 IN
** N=50 EP=14 IP=340 FDC=361
M0 1 3 1 1 nhv L=4 W=7 m=1 r=1.75 a=28 p=22 mult=1 $X=2725 $Y=11605 $D=49
M1 1 4 1 1 nhv L=4 W=7 m=1 r=1.75 a=28 p=22 mult=1 $X=7005 $Y=11605 $D=49
M2 1 5 1 1 nhv L=4 W=7 m=1 r=1.75 a=28 p=22 mult=1 $X=11285 $Y=11605 $D=49
M3 1 6 1 1 nhv L=4 W=7 m=1 r=1.75 a=28 p=22 mult=1 $X=15565 $Y=11605 $D=49
M4 1 7 1 1 nhv L=4 W=7 m=1 r=1.75 a=28 p=22 mult=1 $X=19845 $Y=11605 $D=49
M5 1 8 1 1 nhv L=4 W=7 m=1 r=1.75 a=28 p=22 mult=1 $X=24125 $Y=11605 $D=49
M6 1 9 1 1 nhv L=4 W=7 m=1 r=1.75 a=28 p=22 mult=1 $X=28405 $Y=11605 $D=49
M7 1 10 1 1 nhv L=4 W=7 m=1 r=1.75 a=28 p=22 mult=1 $X=32685 $Y=11605 $D=49
M8 1 11 1 1 nhv L=4 W=7 m=1 r=1.75 a=28 p=22 mult=1 $X=36965 $Y=11605 $D=49
M9 1 11 1 1 nhv L=4 W=7 m=1 r=1.75 a=28 p=22 mult=1 $X=41245 $Y=11605 $D=49
M10 1 12 1 1 nhv L=4 W=7 m=1 r=1.75 a=28 p=22 mult=1 $X=45525 $Y=11605 $D=49
M11 1 13 1 1 nhv L=4 W=7 m=1 r=1.75 a=28 p=22 mult=1 $X=49805 $Y=11605 $D=49
M12 VCC_IO 3 VCC_IO VCC_IO phv L=4 W=7 m=1 r=1.75 a=28 p=22 mult=1 $X=2625 $Y=21435 $D=109
M13 VCC_IO 4 VCC_IO VCC_IO phv L=4 W=7 m=1 r=1.75 a=28 p=22 mult=1 $X=6905 $Y=21435 $D=109
M14 VCC_IO 5 VCC_IO VCC_IO phv L=4 W=7 m=1 r=1.75 a=28 p=22 mult=1 $X=11185 $Y=21435 $D=109
M15 VCC_IO 6 VCC_IO VCC_IO phv L=4 W=7 m=1 r=1.75 a=28 p=22 mult=1 $X=15465 $Y=21435 $D=109
M16 VCC_IO 7 VCC_IO VCC_IO phv L=4 W=7 m=1 r=1.75 a=28 p=22 mult=1 $X=19745 $Y=21435 $D=109
M17 VCC_IO 8 VCC_IO VCC_IO phv L=4 W=7 m=1 r=1.75 a=28 p=22 mult=1 $X=24025 $Y=21435 $D=109
M18 VCC_IO 9 VCC_IO VCC_IO phv L=4 W=7 m=1 r=1.75 a=28 p=22 mult=1 $X=28305 $Y=21435 $D=109
M19 VCC_IO 10 VCC_IO VCC_IO phv L=4 W=7 m=1 r=1.75 a=28 p=22 mult=1 $X=32585 $Y=21435 $D=109
M20 VCC_IO 11 VCC_IO VCC_IO phv L=4 W=7 m=1 r=1.75 a=28 p=22 mult=1 $X=36865 $Y=21435 $D=109
M21 VCC_IO 11 VCC_IO VCC_IO phv L=4 W=7 m=1 r=1.75 a=28 p=22 mult=1 $X=41145 $Y=21435 $D=109
M22 VCC_IO 12 VCC_IO VCC_IO phv L=4 W=7 m=1 r=1.75 a=28 p=22 mult=1 $X=45425 $Y=21435 $D=109
M23 VCC_IO 13 VCC_IO VCC_IO phv L=4 W=7 m=1 r=1.75 a=28 p=22 mult=1 $X=49705 $Y=21435 $D=109
X24 1 8 Dpar a=3.7735 p=15.594 m=1 $[ndiode] $X=2360 $Y=815 $D=175
X25 1 1 Dpar a=3.774 p=15.596 m=1 $[ndiode] $X=2360 $Y=1585 $D=175
X26 1 7 Dpar a=3.7735 p=15.594 m=1 $[ndiode] $X=2360 $Y=2355 $D=175
X27 1 1 Dpar a=3.774 p=15.596 m=1 $[ndiode] $X=2360 $Y=3125 $D=175
X28 1 6 Dpar a=3.7735 p=15.594 m=1 $[ndiode] $X=2360 $Y=3895 $D=175
X29 1 1 Dpar a=3.774 p=15.596 m=1 $[ndiode] $X=2360 $Y=4665 $D=175
X30 1 5 Dpar a=3.7735 p=15.594 m=1 $[ndiode] $X=2360 $Y=5435 $D=175
X31 1 1 Dpar a=3.774 p=15.596 m=1 $[ndiode] $X=2360 $Y=6205 $D=175
X32 1 4 Dpar a=3.7735 p=15.594 m=1 $[ndiode] $X=2360 $Y=6975 $D=175
X33 1 3 Dpar a=3.774 p=15.596 m=1 $[ndiode] $X=2360 $Y=7745 $D=175
X34 1 3 Dpar a=3.7735 p=15.594 m=1 $[ndiode] $X=2360 $Y=8515 $D=175
X35 1 9 Dpar a=3.774 p=15.596 m=1 $[ndiode] $X=2360 $Y=9285 $D=175
X36 1 15 Dpar a=3.774 p=15.596 m=1 $[ndiode] $X=2360 $Y=30560 $D=175
X37 1 15 Dpar a=3.7735 p=15.594 m=1 $[ndiode] $X=2360 $Y=31330 $D=175
X38 1 16 Dpar a=3.774 p=15.596 m=1 $[ndiode] $X=2360 $Y=32100 $D=175
X39 1 16 Dpar a=3.7735 p=15.594 m=1 $[ndiode] $X=2360 $Y=32870 $D=175
X40 1 17 Dpar a=3.774 p=15.596 m=1 $[ndiode] $X=2360 $Y=33640 $D=175
X41 1 17 Dpar a=3.7735 p=15.594 m=1 $[ndiode] $X=2360 $Y=34410 $D=175
X42 1 18 Dpar a=3.774 p=15.596 m=1 $[ndiode] $X=2360 $Y=35180 $D=175
X43 1 18 Dpar a=3.7735 p=15.594 m=1 $[ndiode] $X=2360 $Y=35950 $D=175
X44 1 19 Dpar a=3.774 p=15.596 m=1 $[ndiode] $X=2360 $Y=36720 $D=175
X45 1 19 Dpar a=3.7735 p=15.594 m=1 $[ndiode] $X=2360 $Y=37490 $D=175
X46 1 20 Dpar a=3.774 p=15.596 m=1 $[ndiode] $X=2360 $Y=38260 $D=175
X47 1 20 Dpar a=3.7735 p=15.594 m=1 $[ndiode] $X=2360 $Y=39030 $D=175
X48 1 21 Dpar a=15.5025 p=62.01 m=1 $[ndiode] $X=9912 $Y=815 $D=175
X49 1 1 Dpar a=15.5025 p=62.01 m=1 $[ndiode] $X=9913 $Y=1585 $D=175
X50 1 22 Dpar a=15.5025 p=62.01 m=1 $[ndiode] $X=9912 $Y=2355 $D=175
X51 1 1 Dpar a=15.5025 p=62.01 m=1 $[ndiode] $X=9913 $Y=3125 $D=175
X52 1 23 Dpar a=15.5025 p=62.01 m=1 $[ndiode] $X=9912 $Y=3895 $D=175
X53 1 1 Dpar a=15.5025 p=62.01 m=1 $[ndiode] $X=9913 $Y=4665 $D=175
X54 1 24 Dpar a=15.5025 p=62.01 m=1 $[ndiode] $X=9912 $Y=5435 $D=175
X55 1 1 Dpar a=15.5025 p=62.01 m=1 $[ndiode] $X=9913 $Y=6205 $D=175
X56 1 25 Dpar a=15.5025 p=62.01 m=1 $[ndiode] $X=9912 $Y=6975 $D=175
X57 1 3 Dpar a=15.5025 p=62.01 m=1 $[ndiode] $X=9913 $Y=7745 $D=175
X58 1 26 Dpar a=15.5025 p=62.01 m=1 $[ndiode] $X=9912 $Y=8515 $D=175
X59 1 9 Dpar a=15.5025 p=62.01 m=1 $[ndiode] $X=9913 $Y=9285 $D=175
X60 1 15 Dpar a=15.5025 p=62.01 m=1 $[ndiode] $X=9913 $Y=30560 $D=175
X61 1 27 Dpar a=15.5025 p=62.01 m=1 $[ndiode] $X=9912 $Y=31330 $D=175
X62 1 16 Dpar a=15.5025 p=62.01 m=1 $[ndiode] $X=9913 $Y=32100 $D=175
X63 1 28 Dpar a=15.5025 p=62.01 m=1 $[ndiode] $X=9912 $Y=32870 $D=175
X64 1 17 Dpar a=15.5025 p=62.01 m=1 $[ndiode] $X=9913 $Y=33640 $D=175
X65 1 29 Dpar a=15.5025 p=62.01 m=1 $[ndiode] $X=9912 $Y=34410 $D=175
X66 1 18 Dpar a=15.5025 p=62.01 m=1 $[ndiode] $X=9913 $Y=35180 $D=175
X67 1 30 Dpar a=15.5025 p=62.01 m=1 $[ndiode] $X=9912 $Y=35950 $D=175
X68 1 19 Dpar a=15.5025 p=62.01 m=1 $[ndiode] $X=9913 $Y=36720 $D=175
X69 1 31 Dpar a=15.5025 p=62.01 m=1 $[ndiode] $X=9912 $Y=37490 $D=175
X70 1 20 Dpar a=15.5025 p=62.01 m=1 $[ndiode] $X=9913 $Y=38260 $D=175
X71 1 32 Dpar a=15.5025 p=62.01 m=1 $[ndiode] $X=9912 $Y=39030 $D=175
X72 1 33 Dpar a=3.7735 p=15.594 m=1 $[ndiode] $X=58090 $Y=10735 $D=175
X73 1 33 Dpar a=3.774 p=15.596 m=1 $[ndiode] $X=58090 $Y=11505 $D=175
X74 1 34 Dpar a=3.7735 p=15.594 m=1 $[ndiode] $X=58090 $Y=12275 $D=175
X75 1 34 Dpar a=3.774 p=15.596 m=1 $[ndiode] $X=58090 $Y=13045 $D=175
X76 1 35 Dpar a=3.7735 p=15.594 m=1 $[ndiode] $X=58090 $Y=13815 $D=175
X77 1 35 Dpar a=3.774 p=15.596 m=1 $[ndiode] $X=58090 $Y=14585 $D=175
X78 1 36 Dpar a=3.7735 p=15.594 m=1 $[ndiode] $X=58090 $Y=15355 $D=175
X79 1 36 Dpar a=3.774 p=15.596 m=1 $[ndiode] $X=58090 $Y=16125 $D=175
X80 1 37 Dpar a=3.7735 p=15.594 m=1 $[ndiode] $X=58090 $Y=16895 $D=175
X81 1 37 Dpar a=3.774 p=15.596 m=1 $[ndiode] $X=58090 $Y=17665 $D=175
X82 1 38 Dpar a=3.7735 p=15.594 m=1 $[ndiode] $X=58090 $Y=18435 $D=175
X83 1 38 Dpar a=3.774 p=15.596 m=1 $[ndiode] $X=58090 $Y=19205 $D=175
X84 1 IN Dpar a=3.774 p=15.596 m=1 $[ndiode] $X=58090 $Y=20635 $D=175
X85 1 13 Dpar a=3.7735 p=15.594 m=1 $[ndiode] $X=58090 $Y=21405 $D=175
X86 1 13 Dpar a=3.774 p=15.596 m=1 $[ndiode] $X=58090 $Y=22175 $D=175
X87 1 12 Dpar a=3.7735 p=15.594 m=1 $[ndiode] $X=58090 $Y=22945 $D=175
X88 1 12 Dpar a=3.774 p=15.596 m=1 $[ndiode] $X=58090 $Y=23715 $D=175
X89 1 11 Dpar a=3.7735 p=15.594 m=1 $[ndiode] $X=58090 $Y=24485 $D=175
X90 1 11 Dpar a=3.774 p=15.596 m=1 $[ndiode] $X=58090 $Y=25255 $D=175
X91 1 11 Dpar a=3.7735 p=15.594 m=1 $[ndiode] $X=58090 $Y=26025 $D=175
X92 1 11 Dpar a=3.774 p=15.596 m=1 $[ndiode] $X=58090 $Y=26795 $D=175
X93 1 10 Dpar a=3.7735 p=15.594 m=1 $[ndiode] $X=58090 $Y=27565 $D=175
X94 1 10 Dpar a=3.774 p=15.596 m=1 $[ndiode] $X=58090 $Y=28335 $D=175
X95 1 9 Dpar a=3.7735 p=15.594 m=1 $[ndiode] $X=58090 $Y=29105 $D=175
X96 1 38 Dpar a=12.024 p=48.596 m=1 $[ndiode] $X=40922 $Y=815 $D=175
X97 1 39 Dpar a=12.0235 p=48.594 m=1 $[ndiode] $X=40923 $Y=1585 $D=175
X98 1 37 Dpar a=12.024 p=48.596 m=1 $[ndiode] $X=40922 $Y=2355 $D=175
X99 1 40 Dpar a=12.0235 p=48.594 m=1 $[ndiode] $X=40923 $Y=3125 $D=175
X100 1 36 Dpar a=12.024 p=48.596 m=1 $[ndiode] $X=40922 $Y=3895 $D=175
X101 1 41 Dpar a=12.0235 p=48.594 m=1 $[ndiode] $X=40923 $Y=4665 $D=175
X102 1 35 Dpar a=12.024 p=48.596 m=1 $[ndiode] $X=40922 $Y=5435 $D=175
X103 1 42 Dpar a=12.0235 p=48.594 m=1 $[ndiode] $X=40923 $Y=6205 $D=175
X104 1 34 Dpar a=12.024 p=48.596 m=1 $[ndiode] $X=40922 $Y=6975 $D=175
X105 1 43 Dpar a=12.0235 p=48.594 m=1 $[ndiode] $X=40923 $Y=7745 $D=175
X106 1 33 Dpar a=12.024 p=48.596 m=1 $[ndiode] $X=40922 $Y=8515 $D=175
X107 1 44 Dpar a=12.0235 p=48.594 m=1 $[ndiode] $X=40923 $Y=9285 $D=175
X108 1 45 Dpar a=12.0235 p=48.594 m=1 $[ndiode] $X=40923 $Y=30560 $D=175
X109 1 10 Dpar a=12.024 p=48.596 m=1 $[ndiode] $X=40922 $Y=31330 $D=175
X110 1 46 Dpar a=12.0235 p=48.594 m=1 $[ndiode] $X=40923 $Y=32100 $D=175
X111 1 11 Dpar a=12.024 p=48.596 m=1 $[ndiode] $X=40922 $Y=32870 $D=175
X112 1 47 Dpar a=12.0235 p=48.594 m=1 $[ndiode] $X=40923 $Y=33640 $D=175
X113 1 11 Dpar a=12.024 p=48.596 m=1 $[ndiode] $X=40922 $Y=34410 $D=175
X114 1 48 Dpar a=12.0235 p=48.594 m=1 $[ndiode] $X=40923 $Y=35180 $D=175
X115 1 12 Dpar a=12.024 p=48.596 m=1 $[ndiode] $X=40922 $Y=35950 $D=175
X116 1 49 Dpar a=12.0235 p=48.594 m=1 $[ndiode] $X=40923 $Y=36720 $D=175
X117 1 13 Dpar a=12.024 p=48.596 m=1 $[ndiode] $X=40922 $Y=37490 $D=175
X118 1 50 Dpar a=12.0235 p=48.594 m=1 $[ndiode] $X=40923 $Y=38260 $D=175
X119 1 IN Dpar a=12.024 p=48.596 m=1 $[ndiode] $X=40922 $Y=39030 $D=175
X120 1 44 Dpar a=3.774 p=15.596 m=1 $[ndiode] $X=65642 $Y=10735 $D=175
X121 1 33 Dpar a=3.7735 p=15.594 m=1 $[ndiode] $X=65643 $Y=11505 $D=175
X122 1 43 Dpar a=3.774 p=15.596 m=1 $[ndiode] $X=65642 $Y=12275 $D=175
X123 1 34 Dpar a=3.7735 p=15.594 m=1 $[ndiode] $X=65643 $Y=13045 $D=175
X124 1 42 Dpar a=3.774 p=15.596 m=1 $[ndiode] $X=65642 $Y=13815 $D=175
X125 1 35 Dpar a=3.7735 p=15.594 m=1 $[ndiode] $X=65643 $Y=14585 $D=175
X126 1 41 Dpar a=3.774 p=15.596 m=1 $[ndiode] $X=65642 $Y=15355 $D=175
X127 1 36 Dpar a=3.7735 p=15.594 m=1 $[ndiode] $X=65643 $Y=16125 $D=175
X128 1 40 Dpar a=3.774 p=15.596 m=1 $[ndiode] $X=65642 $Y=16895 $D=175
X129 1 37 Dpar a=3.7735 p=15.594 m=1 $[ndiode] $X=65643 $Y=17665 $D=175
X130 1 39 Dpar a=3.774 p=15.596 m=1 $[ndiode] $X=65642 $Y=18435 $D=175
X131 1 38 Dpar a=3.7735 p=15.594 m=1 $[ndiode] $X=65643 $Y=19205 $D=175
X132 1 IN Dpar a=3.7735 p=15.594 m=1 $[ndiode] $X=65643 $Y=20635 $D=175
X133 1 50 Dpar a=3.774 p=15.596 m=1 $[ndiode] $X=65642 $Y=21405 $D=175
X134 1 13 Dpar a=3.7735 p=15.594 m=1 $[ndiode] $X=65643 $Y=22175 $D=175
X135 1 49 Dpar a=3.774 p=15.596 m=1 $[ndiode] $X=65642 $Y=22945 $D=175
X136 1 12 Dpar a=3.7735 p=15.594 m=1 $[ndiode] $X=65643 $Y=23715 $D=175
X137 1 48 Dpar a=3.774 p=15.596 m=1 $[ndiode] $X=65642 $Y=24485 $D=175
X138 1 11 Dpar a=3.7735 p=15.594 m=1 $[ndiode] $X=65643 $Y=25255 $D=175
X139 1 47 Dpar a=3.774 p=15.596 m=1 $[ndiode] $X=65642 $Y=26025 $D=175
X140 1 11 Dpar a=3.7735 p=15.594 m=1 $[ndiode] $X=65643 $Y=26795 $D=175
X141 1 46 Dpar a=3.774 p=15.596 m=1 $[ndiode] $X=65642 $Y=27565 $D=175
X142 1 10 Dpar a=3.7735 p=15.594 m=1 $[ndiode] $X=65643 $Y=28335 $D=175
X143 1 45 Dpar a=3.774 p=15.596 m=1 $[ndiode] $X=65642 $Y=29105 $D=175
X144 1 VCC_IO Dpar a=501.44 p=125.96 m=1 $[nwdiode] $X=1350 $Y=20095 $D=185
X145 20 32 sky130_fd_io__xres_tk_p_em1o_cdns_55959141808757 $T=16535 39150 0 0 $X=16535 $Y=39150
X146 8 4 sky130_fd_io__xres_tk_p_em1o_cdns_55959141808757 $T=54510 935 0 0 $X=54510 $Y=935
X147 7 4 sky130_fd_io__xres_tk_p_em1o_cdns_55959141808757 $T=54510 2475 0 0 $X=54510 $Y=2475
X148 6 4 sky130_fd_io__xres_tk_p_em1o_cdns_55959141808757 $T=54510 4015 0 0 $X=54510 $Y=4015
X149 5 4 sky130_fd_io__xres_tk_p_em1o_cdns_55959141808757 $T=54510 5555 0 0 $X=54510 $Y=5555
X150 3 4 sky130_fd_io__xres_tk_p_em1o_cdns_55959141808757 $T=54510 8635 0 0 $X=54510 $Y=8635
X151 9 4 sky130_fd_io__xres_tk_p_em1o_cdns_55959141808757 $T=71780 29485 0 180 $X=71360 $Y=29225
X152 12 49 sky130_fd_io__xres_tk_p_em1o_cdns_55959141808757 $T=72265 23325 1 0 $X=72265 $Y=23065
X153 11 47 sky130_fd_io__xres_tk_p_em1o_cdns_55959141808757 $T=72265 26405 1 0 $X=72265 $Y=26145
X154 9 45 sky130_fd_io__xres_tk_p_em1o_cdns_55959141808757 $T=72265 29485 1 0 $X=72265 $Y=29225
X155 15 sky130_fd_io__xres_p_em1c_cdns_55959141808753 $T=16525 30680 0 0 $X=16525 $Y=30680
X156 IN sky130_fd_io__xres_p_em1c_cdns_55959141808753 $T=72255 21015 1 0 $X=72255 $Y=20755
X157 12 sky130_fd_io__xres_p_em1c_cdns_55959141808753 $T=72255 24095 1 0 $X=72255 $Y=23835
X158 11 sky130_fd_io__xres_p_em1c_cdns_55959141808753 $T=72255 27175 1 0 $X=72255 $Y=26915
X159 33 44 ICV_2 $T=72265 11115 1 0 $X=72255 $Y=10855
X160 34 43 ICV_2 $T=72265 12655 1 0 $X=72255 $Y=12395
X161 35 42 ICV_2 $T=72265 14195 1 0 $X=72255 $Y=13935
X162 36 41 ICV_2 $T=72265 15735 1 0 $X=72255 $Y=15475
X163 37 40 ICV_2 $T=72265 17275 1 0 $X=72255 $Y=17015
X164 38 39 ICV_2 $T=72265 18815 1 0 $X=72255 $Y=18555
X165 13 50 ICV_2 $T=72265 21785 1 0 $X=72255 $Y=21525
X166 11 48 ICV_2 $T=72265 24865 1 0 $X=72255 $Y=24605
X167 10 46 ICV_2 $T=72265 27945 1 0 $X=72255 $Y=27685
X168 34 43 34 34 33 44 33 33 ICV_4 $T=72640 11235 0 180 $X=58300 $Y=10605
X169 36 41 36 36 35 42 35 35 ICV_4 $T=72640 14315 0 180 $X=58300 $Y=13685
X170 38 39 38 38 37 40 37 37 ICV_4 $T=72640 17395 0 180 $X=58300 $Y=16765
X171 12 13 49 13 13 IN 50 IN ICV_4 $T=58640 21135 1 0 $X=58300 $Y=20505
X172 11 11 47 11 11 12 48 12 ICV_4 $T=58640 24215 1 0 $X=58300 $Y=23585
X173 9 10 45 10 10 11 46 11 ICV_4 $T=58640 27295 1 0 $X=58300 $Y=26665
X174 1 7 sky130_fd_io__xres_tk_p_em1o_cdns_55959141808758 $T=2980 2025 0 90 $X=2330 $Y=2025
X175 1 6 sky130_fd_io__xres_tk_p_em1o_cdns_55959141808758 $T=2980 3565 0 90 $X=2330 $Y=3565
X176 1 5 sky130_fd_io__xres_tk_p_em1o_cdns_55959141808758 $T=2980 5100 0 90 $X=2330 $Y=5100
X177 1 4 sky130_fd_io__xres_tk_p_em1o_cdns_55959141808758 $T=2980 6640 0 90 $X=2330 $Y=6640
X178 13 12 sky130_fd_io__xres_tk_p_em1o_cdns_55959141808758 $T=58060 22600 1 90 $X=58060 $Y=22600
X179 12 11 sky130_fd_io__xres_tk_p_em1o_cdns_55959141808758 $T=58060 24140 1 90 $X=58060 $Y=24140
X180 11 10 sky130_fd_io__xres_tk_p_em1o_cdns_55959141808758 $T=58060 27220 1 90 $X=58060 $Y=27220
X181 10 9 sky130_fd_io__xres_tk_p_em1o_cdns_55959141808758 $T=58060 28760 1 90 $X=58060 $Y=28760
X182 3 sky130_fd_io__xres_tk_p_em1c_cdns_55959141808760 $T=2980 8155 0 90 $X=2330 $Y=8155
X183 11 sky130_fd_io__xres_tk_p_em1c_cdns_55959141808760 $T=58060 25680 1 90 $X=58060 $Y=25680
X184 9 sky130_fd_io__xres_tk_p_em1c_cdns_55959141808761 $T=29530 9405 0 0 $X=29530 $Y=9405
X185 4 sky130_fd_io__xres_tk_p_em1c_cdns_55959141808761 $T=54470 7095 0 0 $X=54470 $Y=7095
X218 1 sky130_fd_io__xres_tk_p_em1c_cdns_55959141808759 $T=15570 6585 0 90 $X=15280 $Y=6585
X219 1 sky130_fd_io__xres_tk_p_em1c_cdns_55959141808759 $T=24130 5045 0 90 $X=23840 $Y=5045
X220 1 sky130_fd_io__xres_tk_p_em1c_cdns_55959141808759 $T=28410 3505 0 90 $X=28120 $Y=3505
X221 1 sky130_fd_io__xres_tk_p_em1c_cdns_55959141808759 $T=32690 1965 0 90 $X=32400 $Y=1965
X222 8 21 1 ICV_7 $T=16535 935 0 0 $X=16525 $Y=935
X223 7 22 1 ICV_7 $T=16535 2475 0 0 $X=16525 $Y=2475
X224 6 23 1 ICV_7 $T=16535 4015 0 0 $X=16525 $Y=4015
X225 5 24 1 ICV_7 $T=16535 5555 0 0 $X=16525 $Y=5555
X226 4 25 3 ICV_7 $T=16535 7095 0 0 $X=16525 $Y=7095
X227 3 26 9 ICV_7 $T=16535 8635 0 0 $X=16525 $Y=8635
X228 15 27 16 ICV_7 $T=16535 31450 0 0 $X=16525 $Y=31450
X229 16 28 17 ICV_7 $T=16535 32990 0 0 $X=16525 $Y=32990
X230 17 29 18 ICV_7 $T=16535 34530 0 0 $X=16525 $Y=34530
X231 18 30 19 ICV_7 $T=16535 36070 0 0 $X=16525 $Y=36070
X232 19 31 20 ICV_7 $T=16535 37610 0 0 $X=16525 $Y=37610
X233 1 9 sky130_fd_io__xres_tk_p_em1o_cdns_55959141808756 $T=7010 9665 0 90 $X=6720 $Y=9665
X234 1 3 sky130_fd_io__xres_tk_p_em1o_cdns_55959141808756 $T=11290 8125 0 90 $X=11000 $Y=8125
X235 32 20 IN ICV_8 $T=16910 39030 1 180 $X=2570 $Y=38900
X236 15 45 ICV_9 $T=2910 30560 0 0 $X=2570 $Y=30430
X237 13 31 19 20 50 ICV_10 $T=16910 37490 1 180 $X=2570 $Y=37360
X238 38 39 21 1 8 37 40 22 1 7 ICV_11 $T=16910 815 1 180 $X=2570 $Y=685
X239 36 41 23 1 6 35 42 24 1 5 ICV_11 $T=16910 3895 1 180 $X=2570 $Y=3765
X240 34 43 25 3 4 33 44 26 9 3 ICV_11 $T=16910 6975 1 180 $X=2570 $Y=6845
X241 10 46 27 16 15 11 47 28 17 16 ICV_11 $T=16910 31330 1 180 $X=2570 $Y=31200
X242 11 48 29 18 17 12 49 30 19 18 ICV_11 $T=16910 34410 1 180 $X=2570 $Y=34280
.ENDS
***************************************
.SUBCKT sky130_fd_pr__hvdfm1sd2__example_55959141808243
** N=2 EP=0 IP=0 FDC=0
.ENDS
***************************************
.SUBCKT sky130_fd_pr__nfet_01v8__example_55959141808723 1 2 3 4
** N=4 EP=4 IP=4 FDC=1
M0 4 2 3 1 nhv L=1 W=1 m=1 r=1 a=1 p=4 mult=1 $X=0 $Y=0 $D=49
.ENDS
***************************************
.SUBCKT sky130_fd_pr__hvdfm1sd__example_5595914180848
** N=2 EP=0 IP=0 FDC=0
*.SEEDPROM
.ENDS
***************************************
.SUBCKT sky130_fd_pr__hvdfm1sd2__example_5595914180849
** N=3 EP=0 IP=0 FDC=0