* SPICE NETLIST
***************************************

.SUBCKT drainOnly g s d b
.ENDS
***************************************
.SUBCKT condiode pin0 pin1
.ENDS
***************************************
.SUBCKT nvhv pin0 pin1 pin2 pin3
.ENDS
***************************************
.SUBCKT pvhv pin0 pin1 pin2 pin3
.ENDS
***************************************
.SUBCKT xcnwvc pin0 pin1 pin2
.ENDS
***************************************
.SUBCKT xcnwvc2 pin0 pin1 pin2
.ENDS
***************************************
.SUBCKT xchvnwc pin0 pin1 pin2
.ENDS
***************************************
.SUBCKT Dpar d0 d1
.ENDS
***************************************
.SUBCKT xcmvpp pin0 pin1 pin2
.ENDS
***************************************
.SUBCKT xcmvpp_2 pin0 pin1 pin2
.ENDS
***************************************
.SUBCKT xcmvpp2_nhvnative10x4 pin0 pin1 pin2
.ENDS
***************************************
.SUBCKT xcmvpp2_phv5x4 pin0 pin1 pin2
.ENDS
***************************************
.SUBCKT xcmvpp_hd5_atlas_fingercap2_l5 pin0 pin1 pin2
.ENDS
***************************************
.SUBCKT xcmvpp_hd5_atlas_wafflecap2 pin0 pin1 pin2
.ENDS
***************************************
.SUBCKT xcmvpp_hd5_atlas_wafflecap1 pin0 pin1 pin2
.ENDS
***************************************
.SUBCKT xcmvpp_hd5_atlas_fingercap_l40 pin0 pin1 pin2
.ENDS
***************************************
.SUBCKT xcmvpp_hd5_atlas_fingercap_l20 pin0 pin1 pin2
.ENDS
***************************************
.SUBCKT xcmvpp_hd5_atlas_fingercap_l10 pin0 pin1 pin2
.ENDS
***************************************
.SUBCKT xcmvpp_hd5_atlas_fingercap_l5 pin0 pin1 pin2
.ENDS
***************************************
.SUBCKT xcmvpp_hd5_5x2_met5pullin pin0 pin1 pin2
.ENDS
***************************************
.SUBCKT xcmvpp_hd5_5x2 pin0 pin1 pin2
.ENDS
***************************************
.SUBCKT xcmvpp_hd5_5x1_met5pullin pin0 pin1 pin2
.ENDS
***************************************
.SUBCKT xcmvpp_hd5_5x1 pin0 pin1 pin2
.ENDS
***************************************
.SUBCKT xcmvpp_hd5_4x2 pin0 pin1 pin2
.ENDS
***************************************
.SUBCKT xcmvpp_hd5_4x1 pin0 pin1 pin2
.ENDS
***************************************
.SUBCKT xcmvpp_hd5_3x2 pin0 pin1 pin2
.ENDS
***************************************
.SUBCKT xcmvpp_hd5_3x1 pin0 pin1 pin2
.ENDS
***************************************
.SUBCKT xcmvpp_hd5_2x2 pin0 pin1 pin2
.ENDS
***************************************
.SUBCKT xcmvpp_hd5_2x1 pin0 pin1 pin2
.ENDS
***************************************
.SUBCKT xcmvpp_hd5_1x2 pin0 pin1 pin2
.ENDS
***************************************
.SUBCKT xcmvpp_hd5_1x1 pin0 pin1 pin2
.ENDS
***************************************
.SUBCKT xcmvppx4_2xnhvnative10x4 pin0 pin1 pin2 pin3
.ENDS
***************************************
.SUBCKT xcmvpp11p5x11p7_polym50p4shield pin0 pin1 pin2 pin3
.ENDS
***************************************
.SUBCKT xcmvpp4p4x4p6_m3_lim5shield pin0 pin1 pin2 pin3
.ENDS
***************************************
.SUBCKT xcmvpp11p5x11p7_m3_lim5shield pin0 pin1 pin2 pin3
.ENDS
***************************************
.SUBCKT xcmvpp8p6x7p9_m3_lim5shield pin0 pin1 pin2 pin3
.ENDS
***************************************
.SUBCKT xcmvpp11p5x11p7_lim5shield pin0 pin1 pin2 pin3
.ENDS
***************************************
.SUBCKT xcmvpp11p5x11p7_polym5shield pin0 pin1 pin2 pin3
.ENDS
***************************************
.SUBCKT xcmvpp11p5x11p7_m5shield pin0 pin1 pin2 pin3
.ENDS
***************************************
.SUBCKT xcmvpp6p8x6p1_lim4shield pin0 pin1 pin2 pin3
.ENDS
***************************************
.SUBCKT xcmvpp6p8x6p1_polym4shield pin0 pin1 pin2 pin3
.ENDS
***************************************
.SUBCKT xcmvpp11p5x11p7_polym4shield pin0 pin1 pin2 pin3
.ENDS
***************************************
.SUBCKT xcmvpp11p5x11p7_m4shield pin0 pin1 pin2 pin3
.ENDS
***************************************
.SUBCKT xcmvpp1p8x1p8 pin0 pin1 pin2
.ENDS
***************************************
.SUBCKT xcmvpp4p4x4p6_m3_lishield pin0 pin1 pin2
.ENDS
***************************************
.SUBCKT xcmvpp8p6x7p9_m3_lishield pin0 pin1 pin2
.ENDS
***************************************
.SUBCKT xcmvpp11p5x11p7_m3_lishield pin0 pin1 pin2
.ENDS
***************************************
.SUBCKT xcmvpp11p5x11p7_m3shield c0 c1 b term4
.ENDS
***************************************
.SUBCKT xcmvpp8p6x7p9_m3shield c0 c1 b term4
.ENDS
***************************************
.SUBCKT xcmvpp4p4x4p6_m3shield c0 c1 b term4
.ENDS
***************************************
.SUBCKT xcmvpp1p8x1p8_m3shield c0 c1 b term4
.ENDS
***************************************
.SUBCKT xcmvpp11p5x11p7_m1m4m5shield pin0 pin1 pin2 pin3
.ENDS
***************************************
.SUBCKT xcmvpp11p5x11p7_m1m4 pin0 pin1 pin2
.ENDS
***************************************
.SUBCKT xcmvpp11p5x11p7_m1m2 pin0 pin1 pin2
.ENDS
***************************************
.SUBCKT xcmvpp4p4x4p6_m1m2 pin0 pin1 pin2
.ENDS
***************************************
.SUBCKT xcmvpp5 pin0 pin1 pin2
.ENDS
***************************************
.SUBCKT xcmvpp4 pin0 pin1 pin2
.ENDS
***************************************
.SUBCKT xcmvpp3 pin0 pin1 pin2
.ENDS
***************************************
.SUBCKT balun pin0 pin1 pin2 pin3 pin4 pin5
.ENDS
***************************************
.SUBCKT ind4 pin0 pin1 pin2 pin3
.ENDS
***************************************
.SUBCKT Probe probe conductor
.ENDS
***************************************
.SUBCKT sky130_fd_pr__res_bent_po__example_55959141808669 2 3
** N=3 EP=2 IP=0 FDC=1
R0 2 3 L=470 W=0.33 m=1 $[mrp1] $X=-250 $Y=-1620 $D=250
.ENDS
***************************************
.SUBCKT sky130_fd_pr__dfl1__example_55959141808662
** N=2 EP=0 IP=0 FDC=0
.ENDS
***************************************
.SUBCKT sky130_fd_pr__dfl1__example_55959141808663
** N=2 EP=0 IP=0 FDC=0
.ENDS
***************************************
.SUBCKT sky130_fd_pr__hvdfl1sd__example_5595914180851
** N=2 EP=0 IP=0 FDC=0
.ENDS
***************************************
.SUBCKT sky130_fd_pr__model__nfet_highvoltage__example_55959141808664 1 2
** N=2 EP=2 IP=4 FDC=1
M0 1 2 1 1 nhv L=4 W=5 m=1 r=1.25 a=20 p=18 mult=1 $X=0 $Y=0 $D=49
.ENDS
***************************************
.SUBCKT sky130_fd_io__sio_clamp_pcap_4x5 1 2
** N=2 EP=2 IP=2 FDC=1
X0 1 2 sky130_fd_pr__model__nfet_highvoltage__example_55959141808664 $T=1145 720 0 0 $X=700 $Y=540
.ENDS
***************************************
.SUBCKT sky130_fd_io__esd_rcclamp_nfetcap 1 2
** N=2 EP=2 IP=4 FDC=1
M0 1 2 1 1 nhv L=8 W=5 m=1 r=0.625 a=40 p=26 mult=1 $X=895 $Y=630 $D=49
.ENDS
***************************************
.SUBCKT sky130_fd_pr__dfl1sd__example_55959141808678
** N=2 EP=0 IP=0 FDC=0
.ENDS
***************************************
.SUBCKT sky130_fd_pr__dfl1sd2__example_55959141808679
** N=2 EP=0 IP=0 FDC=0
.ENDS
***************************************
.SUBCKT ICV_1
** N=2 EP=0 IP=4 FDC=0
.ENDS
***************************************
.SUBCKT ICV_2
** N=2 EP=0 IP=4 FDC=0
.ENDS
***************************************
.SUBCKT sky130_fd_pr__nfet_01v8__example_55959141808677 1 2 3
** N=3 EP=3 IP=12 FDC=15
M0 3 2 1 1 nhv L=0.5 W=7 m=1 r=14 a=3.5 p=15 mult=1 $X=0 $Y=0 $D=49
M1 1 2 3 1 nhv L=0.5 W=7 m=1 r=14 a=3.5 p=15 mult=1 $X=780 $Y=0 $D=49
M2 3 2 1 1 nhv L=0.5 W=7 m=1 r=14 a=3.5 p=15 mult=1 $X=1560 $Y=0 $D=49
M3 1 2 3 1 nhv L=0.5 W=7 m=1 r=14 a=3.5 p=15 mult=1 $X=2340 $Y=0 $D=49
M4 3 2 1 1 nhv L=0.5 W=7 m=1 r=14 a=3.5 p=15 mult=1 $X=3120 $Y=0 $D=49
M5 1 2 3 1 nhv L=0.5 W=7 m=1 r=14 a=3.5 p=15 mult=1 $X=3900 $Y=0 $D=49
M6 3 2 1 1 nhv L=0.5 W=7 m=1 r=14 a=3.5 p=15 mult=1 $X=4680 $Y=0 $D=49
M7 1 2 3 1 nhv L=0.5 W=7 m=1 r=14 a=3.5 p=15 mult=1 $X=5460 $Y=0 $D=49
M8 3 2 1 1 nhv L=0.5 W=7 m=1 r=14 a=3.5 p=15 mult=1 $X=6240 $Y=0 $D=49
M9 1 2 3 1 nhv L=0.5 W=7 m=1 r=14 a=3.5 p=15 mult=1 $X=7020 $Y=0 $D=49
M10 3 2 1 1 nhv L=0.5 W=7 m=1 r=14 a=3.5 p=15 mult=1 $X=7800 $Y=0 $D=49
M11 1 2 3 1 nhv L=0.5 W=7 m=1 r=14 a=3.5 p=15 mult=1 $X=8580 $Y=0 $D=49
M12 3 2 1 1 nhv L=0.5 W=7 m=1 r=14 a=3.5 p=15 mult=1 $X=9360 $Y=0 $D=49
M13 1 2 3 1 nhv L=0.5 W=7 m=1 r=14 a=3.5 p=15 mult=1 $X=10140 $Y=0 $D=49
M14 3 2 1 1 nhv L=0.5 W=7 m=1 r=14 a=3.5 p=15 mult=1 $X=10920 $Y=0 $D=49
.ENDS
***************************************
.SUBCKT ICV_3 1 2
** N=2 EP=2 IP=4 FDC=2
X0 1 2 sky130_fd_io__esd_rcclamp_nfetcap $T=-9760 0 0 0 $X=-10010 $Y=-90
X1 1 2 sky130_fd_io__esd_rcclamp_nfetcap $T=0 0 0 0 $X=-250 $Y=-90
.ENDS
***************************************
.SUBCKT sky130_fd_pr__hvdftpl1s__example_55959141808671
** N=1 EP=0 IP=0 FDC=0
.ENDS
***************************************
.SUBCKT sky130_fd_pr__hvdftpl1s2__example_55959141808672
** N=1 EP=0 IP=0 FDC=0
.ENDS
***************************************
.SUBCKT sky130_fd_pr__nfet_01v8__example_55959141808670 1 2 3
** N=3 EP=3 IP=10 FDC=18
M0 3 2 1 1 nhv L=0.5 W=20 m=1 r=40 a=10 p=41 mult=1 $X=0 $Y=0 $D=49
M1 1 2 3 1 nhv L=0.5 W=20 m=1 r=40 a=10 p=41 mult=1 $X=2010 $Y=0 $D=49
M2 3 2 1 1 nhv L=0.5 W=20 m=1 r=40 a=10 p=41 mult=1 $X=4600 $Y=0 $D=49
M3 1 2 3 1 nhv L=0.5 W=20 m=1 r=40 a=10 p=41 mult=1 $X=6610 $Y=0 $D=49
M4 3 2 1 1 nhv L=0.5 W=20 m=1 r=40 a=10 p=41 mult=1 $X=9200 $Y=0 $D=49
M5 1 2 3 1 nhv L=0.5 W=20 m=1 r=40 a=10 p=41 mult=1 $X=11210 $Y=0 $D=49
M6 3 2 1 1 nhv L=0.5 W=20 m=1 r=40 a=10 p=41 mult=1 $X=13800 $Y=0 $D=49
M7 1 2 3 1 nhv L=0.5 W=20 m=1 r=40 a=10 p=41 mult=1 $X=15810 $Y=0 $D=49
M8 3 2 1 1 nhv L=0.5 W=20 m=1 r=40 a=10 p=41 mult=1 $X=18400 $Y=0 $D=49
M9 1 2 3 1 nhv L=0.5 W=20 m=1 r=40 a=10 p=41 mult=1 $X=20410 $Y=0 $D=49
M10 3 2 1 1 nhv L=0.5 W=20 m=1 r=40 a=10 p=41 mult=1 $X=23000 $Y=0 $D=49
M11 1 2 3 1 nhv L=0.5 W=20 m=1 r=40 a=10 p=41 mult=1 $X=25010 $Y=0 $D=49
M12 3 2 1 1 nhv L=0.5 W=20 m=1 r=40 a=10 p=41 mult=1 $X=27600 $Y=0 $D=49
M13 1 2 3 1 nhv L=0.5 W=20 m=1 r=40 a=10 p=41 mult=1 $X=29610 $Y=0 $D=49
M14 3 2 1 1 nhv L=0.5 W=20 m=1 r=40 a=10 p=41 mult=1 $X=32200 $Y=0 $D=49
M15 1 2 3 1 nhv L=0.5 W=20 m=1 r=40 a=10 p=41 mult=1 $X=34210 $Y=0 $D=49
M16 3 2 1 1 nhv L=0.5 W=20 m=1 r=40 a=10 p=41 mult=1 $X=36800 $Y=0 $D=49
M17 1 2 3 1 nhv L=0.5 W=20 m=1 r=40 a=10 p=41 mult=1 $X=38810 $Y=0 $D=49
.ENDS
***************************************
.SUBCKT sky130_fd_pr__hvdftpl1s__example_55959141808675
** N=1 EP=0 IP=0 FDC=0
.ENDS
***************************************
.SUBCKT sky130_fd_pr__hvdftpl1s2__example_55959141808676
** N=1 EP=0 IP=0 FDC=0
.ENDS
***************************************
.SUBCKT sky130_fd_pr__nfet_01v8__example_55959141808674 1 2 3
** N=3 EP=3 IP=12 FDC=22
M0 3 2 1 1 nhv L=0.5 W=10 m=1 r=20 a=5 p=21 mult=1 $X=0 $Y=0 $D=49
M1 1 2 3 1 nhv L=0.5 W=10 m=1 r=20 a=5 p=21 mult=1 $X=2010 $Y=0 $D=49
M2 3 2 1 1 nhv L=0.5 W=10 m=1 r=20 a=5 p=21 mult=1 $X=4600 $Y=0 $D=49
M3 1 2 3 1 nhv L=0.5 W=10 m=1 r=20 a=5 p=21 mult=1 $X=6610 $Y=0 $D=49
M4 3 2 1 1 nhv L=0.5 W=10 m=1 r=20 a=5 p=21 mult=1 $X=9200 $Y=0 $D=49
M5 1 2 3 1 nhv L=0.5 W=10 m=1 r=20 a=5 p=21 mult=1 $X=11210 $Y=0 $D=49
M6 3 2 1 1 nhv L=0.5 W=10 m=1 r=20 a=5 p=21 mult=1 $X=13800 $Y=0 $D=49
M7 1 2 3 1 nhv L=0.5 W=10 m=1 r=20 a=5 p=21 mult=1 $X=15810 $Y=0 $D=49
M8 3 2 1 1 nhv L=0.5 W=10 m=1 r=20 a=5 p=21 mult=1 $X=18400 $Y=0 $D=49
M9 1 2 3 1 nhv L=0.5 W=10 m=1 r=20 a=5 p=21 mult=1 $X=20410 $Y=0 $D=49
M10 3 2 1 1 nhv L=0.5 W=10 m=1 r=20 a=5 p=21 mult=1 $X=23000 $Y=0 $D=49
M11 1 2 3 1 nhv L=0.5 W=10 m=1 r=20 a=5 p=21 mult=1 $X=25010 $Y=0 $D=49
M12 3 2 1 1 nhv L=0.5 W=10 m=1 r=20 a=5 p=21 mult=1 $X=27600 $Y=0 $D=49
M13 1 2 3 1 nhv L=0.5 W=10 m=1 r=20 a=5 p=21 mult=1 $X=29610 $Y=0 $D=49
M14 3 2 1 1 nhv L=0.5 W=10 m=1 r=20 a=5 p=21 mult=1 $X=32200 $Y=0 $D=49
M15 1 2 3 1 nhv L=0.5 W=10 m=1 r=20 a=5 p=21 mult=1 $X=34210 $Y=0 $D=49
M16 3 2 1 1 nhv L=0.5 W=10 m=1 r=20 a=5 p=21 mult=1 $X=36800 $Y=0 $D=49
M17 1 2 3 1 nhv L=0.5 W=10 m=1 r=20 a=5 p=21 mult=1 $X=38810 $Y=0 $D=49
M18 3 2 1 1 nhv L=0.5 W=10 m=1 r=20 a=5 p=21 mult=1 $X=41400 $Y=0 $D=49
M19 1 2 3 1 nhv L=0.5 W=10 m=1 r=20 a=5 p=21 mult=1 $X=43410 $Y=0 $D=49
M20 3 2 1 1 nhv L=0.5 W=10 m=1 r=20 a=5 p=21 mult=1 $X=46000 $Y=0 $D=49
M21 1 2 3 1 nhv L=0.5 W=10 m=1 r=20 a=5 p=21 mult=1 $X=48010 $Y=0 $D=49
.ENDS
***************************************
.SUBCKT sky130_fd_pr__nfet_01v8__example_55959141808673 1 2 3
** N=3 EP=3 IP=12 FDC=22
M0 3 2 1 1 nhv L=0.5 W=20 m=1 r=40 a=10 p=41 mult=1 $X=0 $Y=0 $D=49
M1 1 2 3 1 nhv L=0.5 W=20 m=1 r=40 a=10 p=41 mult=1 $X=2010 $Y=0 $D=49
M2 3 2 1 1 nhv L=0.5 W=20 m=1 r=40 a=10 p=41 mult=1 $X=4600 $Y=0 $D=49
M3 1 2 3 1 nhv L=0.5 W=20 m=1 r=40 a=10 p=41 mult=1 $X=6610 $Y=0 $D=49
M4 3 2 1 1 nhv L=0.5 W=20 m=1 r=40 a=10 p=41 mult=1 $X=9200 $Y=0 $D=49
M5 1 2 3 1 nhv L=0.5 W=20 m=1 r=40 a=10 p=41 mult=1 $X=11210 $Y=0 $D=49
M6 3 2 1 1 nhv L=0.5 W=20 m=1 r=40 a=10 p=41 mult=1 $X=13800 $Y=0 $D=49
M7 1 2 3 1 nhv L=0.5 W=20 m=1 r=40 a=10 p=41 mult=1 $X=15810 $Y=0 $D=49
M8 3 2 1 1 nhv L=0.5 W=20 m=1 r=40 a=10 p=41 mult=1 $X=18400 $Y=0 $D=49
M9 1 2 3 1 nhv L=0.5 W=20 m=1 r=40 a=10 p=41 mult=1 $X=20410 $Y=0 $D=49
M10 3 2 1 1 nhv L=0.5 W=20 m=1 r=40 a=10 p=41 mult=1 $X=23000 $Y=0 $D=49
M11 1 2 3 1 nhv L=0.5 W=20 m=1 r=40 a=10 p=41 mult=1 $X=25010 $Y=0 $D=49
M12 3 2 1 1 nhv L=0.5 W=20 m=1 r=40 a=10 p=41 mult=1 $X=27600 $Y=0 $D=49
M13 1 2 3 1 nhv L=0.5 W=20 m=1 r=40 a=10 p=41 mult=1 $X=29610 $Y=0 $D=49
M14 3 2 1 1 nhv L=0.5 W=20 m=1 r=40 a=10 p=41 mult=1 $X=32200 $Y=0 $D=49
M15 1 2 3 1 nhv L=0.5 W=20 m=1 r=40 a=10 p=41 mult=1 $X=34210 $Y=0 $D=49
M16 3 2 1 1 nhv L=0.5 W=20 m=1 r=40 a=10 p=41 mult=1 $X=36800 $Y=0 $D=49
M17 1 2 3 1 nhv L=0.5 W=20 m=1 r=40 a=10 p=41 mult=1 $X=38810 $Y=0 $D=49
M18 3 2 1 1 nhv L=0.5 W=20 m=1 r=40 a=10 p=41 mult=1 $X=41400 $Y=0 $D=49
M19 1 2 3 1 nhv L=0.5 W=20 m=1 r=40 a=10 p=41 mult=1 $X=43410 $Y=0 $D=49
M20 3 2 1 1 nhv L=0.5 W=20 m=1 r=40 a=10 p=41 mult=1 $X=46000 $Y=0 $D=49
M21 1 2 3 1 nhv L=0.5 W=20 m=1 r=40 a=10 p=41 mult=1 $X=48010 $Y=0 $D=49
.ENDS
***************************************
.SUBCKT sky130_fd_pr__res_bent_po__example_55959141808668 2 3
** N=3 EP=2 IP=0 FDC=1
R0 2 3 L=700 W=0.33 m=1 $[mrp1] $X=-250 $Y=-8100 $D=250
.ENDS
***************************************
.SUBCKT sky130_fd_pr__dfl1sd__example_55959141808336
** N=2 EP=0 IP=0 FDC=0
*.SEEDPROM
.ENDS
***************************************
.SUBCKT sky130_fd_pr__dfl1sd2__example_55959141808666
** N=3 EP=0 IP=0 FDC=0
*.SEEDPROM
.ENDS
***************************************
.SUBCKT ICV_4
** N=3 EP=0 IP=6 FDC=0
*.SEEDPROM
.ENDS
***************************************
.SUBCKT ICV_5
** N=3 EP=0 IP=6 FDC=0
*.SEEDPROM
.ENDS
***************************************
.SUBCKT ICV_6
** N=3 EP=0 IP=6 FDC=0
*.SEEDPROM
.ENDS
***************************************
.SUBCKT ICV_7
** N=3 EP=0 IP=6 FDC=0
*.SEEDPROM
.ENDS
***************************************
.SUBCKT sky130_fd_pr__pfet_01v8__example_55959141808665 2 3 4
** N=4 EP=3 IP=16 FDC=50
*.SEEDPROM
M0 4 3 2 2 phv L=0.5 W=7 m=1 r=14 a=3.5 p=15 mult=1 $X=0 $Y=0 $D=109
M1 2 3 4 2 phv L=0.5 W=7 m=1 r=14 a=3.5 p=15 mult=1 $X=780 $Y=0 $D=109
M2 4 3 2 2 phv L=0.5 W=7 m=1 r=14 a=3.5 p=15 mult=1 $X=1560 $Y=0 $D=109
M3 2 3 4 2 phv L=0.5 W=7 m=1 r=14 a=3.5 p=15 mult=1 $X=2340 $Y=0 $D=109
M4 4 3 2 2 phv L=0.5 W=7 m=1 r=14 a=3.5 p=15 mult=1 $X=3120 $Y=0 $D=109
M5 2 3 4 2 phv L=0.5 W=7 m=1 r=14 a=3.5 p=15 mult=1 $X=3900 $Y=0 $D=109
M6 4 3 2 2 phv L=0.5 W=7 m=1 r=14 a=3.5 p=15 mult=1 $X=4680 $Y=0 $D=109
M7 2 3 4 2 phv L=0.5 W=7 m=1 r=14 a=3.5 p=15 mult=1 $X=5460 $Y=0 $D=109
M8 4 3 2 2 phv L=0.5 W=7 m=1 r=14 a=3.5 p=15 mult=1 $X=6240 $Y=0 $D=109
M9 2 3 4 2 phv L=0.5 W=7 m=1 r=14 a=3.5 p=15 mult=1 $X=7020 $Y=0 $D=109
M10 4 3 2 2 phv L=0.5 W=7 m=1 r=14 a=3.5 p=15 mult=1 $X=7800 $Y=0 $D=109
M11 2 3 4 2 phv L=0.5 W=7 m=1 r=14 a=3.5 p=15 mult=1 $X=8580 $Y=0 $D=109
M12 4 3 2 2 phv L=0.5 W=7 m=1 r=14 a=3.5 p=15 mult=1 $X=9360 $Y=0 $D=109
M13 2 3 4 2 phv L=0.5 W=7 m=1 r=14 a=3.5 p=15 mult=1 $X=10140 $Y=0 $D=109
M14 4 3 2 2 phv L=0.5 W=7 m=1 r=14 a=3.5 p=15 mult=1 $X=10920 $Y=0 $D=109
M15 2 3 4 2 phv L=0.5 W=7 m=1 r=14 a=3.5 p=15 mult=1 $X=11700 $Y=0 $D=109
M16 4 3 2 2 phv L=0.5 W=7 m=1 r=14 a=3.5 p=15 mult=1 $X=12480 $Y=0 $D=109
M17 2 3 4 2 phv L=0.5 W=7 m=1 r=14 a=3.5 p=15 mult=1 $X=13260 $Y=0 $D=109
M18 4 3 2 2 phv L=0.5 W=7 m=1 r=14 a=3.5 p=15 mult=1 $X=14040 $Y=0 $D=109
M19 2 3 4 2 phv L=0.5 W=7 m=1 r=14 a=3.5 p=15 mult=1 $X=14820 $Y=0 $D=109
M20 4 3 2 2 phv L=0.5 W=7 m=1 r=14 a=3.5 p=15 mult=1 $X=15600 $Y=0 $D=109
M21 2 3 4 2 phv L=0.5 W=7 m=1 r=14 a=3.5 p=15 mult=1 $X=16380 $Y=0 $D=109
M22 4 3 2 2 phv L=0.5 W=7 m=1 r=14 a=3.5 p=15 mult=1 $X=17160 $Y=0 $D=109
M23 2 3 4 2 phv L=0.5 W=7 m=1 r=14 a=3.5 p=15 mult=1 $X=17940 $Y=0 $D=109
M24 4 3 2 2 phv L=0.5 W=7 m=1 r=14 a=3.5 p=15 mult=1 $X=18720 $Y=0 $D=109
M25 2 3 4 2 phv L=0.5 W=7 m=1 r=14 a=3.5 p=15 mult=1 $X=19500 $Y=0 $D=109
M26 4 3 2 2 phv L=0.5 W=7 m=1 r=14 a=3.5 p=15 mult=1 $X=20280 $Y=0 $D=109
M27 2 3 4 2 phv L=0.5 W=7 m=1 r=14 a=3.5 p=15 mult=1 $X=21060 $Y=0 $D=109
M28 4 3 2 2 phv L=0.5 W=7 m=1 r=14 a=3.5 p=15 mult=1 $X=21840 $Y=0 $D=109
M29 2 3 4 2 phv L=0.5 W=7 m=1 r=14 a=3.5 p=15 mult=1 $X=22620 $Y=0 $D=109
M30 4 3 2 2 phv L=0.5 W=7 m=1 r=14 a=3.5 p=15 mult=1 $X=23400 $Y=0 $D=109
M31 2 3 4 2 phv L=0.5 W=7 m=1 r=14 a=3.5 p=15 mult=1 $X=24180 $Y=0 $D=109
M32 4 3 2 2 phv L=0.5 W=7 m=1 r=14 a=3.5 p=15 mult=1 $X=24960 $Y=0 $D=109
M33 2 3 4 2 phv L=0.5 W=7 m=1 r=14 a=3.5 p=15 mult=1 $X=25740 $Y=0 $D=109
M34 4 3 2 2 phv L=0.5 W=7 m=1 r=14 a=3.5 p=15 mult=1 $X=26520 $Y=0 $D=109
M35 2 3 4 2 phv L=0.5 W=7 m=1 r=14 a=3.5 p=15 mult=1 $X=27300 $Y=0 $D=109
M36 4 3 2 2 phv L=0.5 W=7 m=1 r=14 a=3.5 p=15 mult=1 $X=28080 $Y=0 $D=109
M37 2 3 4 2 phv L=0.5 W=7 m=1 r=14 a=3.5 p=15 mult=1 $X=28860 $Y=0 $D=109
M38 4 3 2 2 phv L=0.5 W=7 m=1 r=14 a=3.5 p=15 mult=1 $X=29640 $Y=0 $D=109
M39 2 3 4 2 phv L=0.5 W=7 m=1 r=14 a=3.5 p=15 mult=1 $X=30420 $Y=0 $D=109
M40 4 3 2 2 phv L=0.5 W=7 m=1 r=14 a=3.5 p=15 mult=1 $X=31200 $Y=0 $D=109
M41 2 3 4 2 phv L=0.5 W=7 m=1 r=14 a=3.5 p=15 mult=1 $X=31980 $Y=0 $D=109
M42 4 3 2 2 phv L=0.5 W=7 m=1 r=14 a=3.5 p=15 mult=1 $X=32760 $Y=0 $D=109
M43 2 3 4 2 phv L=0.5 W=7 m=1 r=14 a=3.5 p=15 mult=1 $X=33540 $Y=0 $D=109
M44 4 3 2 2 phv L=0.5 W=7 m=1 r=14 a=3.5 p=15 mult=1 $X=34320 $Y=0 $D=109
M45 2 3 4 2 phv L=0.5 W=7 m=1 r=14 a=3.5 p=15 mult=1 $X=35100 $Y=0 $D=109
M46 4 3 2 2 phv L=0.5 W=7 m=1 r=14 a=3.5 p=15 mult=1 $X=35880 $Y=0 $D=109
M47 2 3 4 2 phv L=0.5 W=7 m=1 r=14 a=3.5 p=15 mult=1 $X=36660 $Y=0 $D=109
M48 4 3 2 2 phv L=0.5 W=7 m=1 r=14 a=3.5 p=15 mult=1 $X=37440 $Y=0 $D=109
M49 2 3 4 2 phv L=0.5 W=7 m=1 r=14 a=3.5 p=15 mult=1 $X=38220 $Y=0 $D=109
.ENDS
***************************************
.SUBCKT sky130_fd_pr__res_bent_po__example_55959141808667 2 3
** N=3 EP=2 IP=0 FDC=1
R0 2 3 L=1550 W=0.33 m=1 $[mrp1] $X=-250 $Y=-6480 $D=250
.ENDS
***************************************
.SUBCKT sky130_fd_io__top_power_hvc_wpadv2 VSSD SRC_BDY_HVC DRN_HVC VDDIO P_CORE P_PAD
** N=21 EP=6 IP=207 FDC=241
*.CALIBRE ISOLATED NETS: OGC_HVC VCCHIB VCCD VDDA VSSIO VSWITCH VSSA AMUXBUS_B AMUXBUS_A VSSIO_Q VDDIO_Q
R0 P_CORE P_PAD 0.01 m=1 $[short] $X=6670 $Y=105345 $D=269
X1 SRC_BDY_HVC VDDIO condiode a=1e-06 p=0.004 m=1 ahftempperim=0.004 $X=51225 $Y=21735 $D=150
X2 SRC_BDY_HVC VDDIO condiode a=1e-06 p=0.004 m=1 ahftempperim=0.004 $X=51225 $Y=45310 $D=150
X3 SRC_BDY_HVC VDDIO condiode a=1e-06 p=0.004 m=1 ahftempperim=0.004 $X=64770 $Y=40835 $D=150
X4 SRC_BDY_HVC VDDIO condiode a=1e-06 p=0.004 m=1 ahftempperim=0.004 $X=68375 $Y=197675 $D=150
X5 VSSD VDDIO Dpar a=126.766 p=0 m=1 $[nwdiode] $X=8835 $Y=43175 $D=183
X6 SRC_BDY_HVC VDDIO Dpar a=8184.99 p=443.22 m=1 $[dnwdiode_pw] $X=10695 $Y=45035 $D=188
X7 SRC_BDY_HVC VDDIO Dpar a=137.463 p=47.72 m=1 $[dnwdiode_pw] $X=53530 $Y=31395 $D=188
X8 SRC_BDY_HVC VDDIO Dpar a=1172.63 p=163 m=1 $[dnwdiode_pw] $X=13380 $Y=2205 $D=188
X9 VSSD VDDIO Dpar a=10358.7 p=619.08 m=1 $[dnwdiode_psub] $X=9500 $Y=133835 $D=187
X10 VSSD DRN_HVC Dpar a=369.745 p=100.13 m=1 $[nwdiode] $X=5200 $Y=28925 $D=185
X11 19 20 sky130_fd_pr__res_bent_po__example_55959141808669 $T=71055 42015 0 90 $X=70705 $Y=41745
X83 SRC_BDY_HVC 19 sky130_fd_pr__model__nfet_highvoltage__example_55959141808664 $T=61815 27145 0 180 $X=57370 $Y=21965
X84 SRC_BDY_HVC 19 sky130_fd_io__sio_clamp_pcap_4x5 $T=19920 9205 0 180 $X=13630 $Y=2455
X85 SRC_BDY_HVC 19 sky130_fd_io__sio_clamp_pcap_4x5 $T=19920 15425 0 180 $X=13630 $Y=8675
X86 SRC_BDY_HVC 19 sky130_fd_io__sio_clamp_pcap_4x5 $T=19920 21645 0 180 $X=13630 $Y=14895
X87 SRC_BDY_HVC 19 sky130_fd_io__sio_clamp_pcap_4x5 $T=68720 27865 0 180 $X=62430 $Y=21115
X88 SRC_BDY_HVC 19 sky130_fd_io__esd_rcclamp_nfetcap $T=68470 9115 0 180 $X=58430 $Y=2455
X89 SRC_BDY_HVC 19 sky130_fd_io__esd_rcclamp_nfetcap $T=68470 15335 0 180 $X=58430 $Y=8675
X90 SRC_BDY_HVC 19 sky130_fd_io__esd_rcclamp_nfetcap $T=68470 21555 0 180 $X=58430 $Y=14895
X91 SRC_BDY_HVC 19 21 sky130_fd_pr__nfet_01v8__example_55959141808677 $T=54915 32580 0 0 $X=54470 $Y=32400
X92 SRC_BDY_HVC 19 ICV_3 $T=29430 9115 0 180 $X=19390 $Y=2455
X93 SRC_BDY_HVC 19 ICV_3 $T=29430 15335 0 180 $X=19390 $Y=8675
X94 SRC_BDY_HVC 19 ICV_3 $T=29430 21555 0 180 $X=19390 $Y=14895
X95 SRC_BDY_HVC 19 ICV_3 $T=48950 9115 0 180 $X=38910 $Y=2455
X96 SRC_BDY_HVC 19 ICV_3 $T=48950 15335 0 180 $X=38910 $Y=8675
X97 SRC_BDY_HVC 19 ICV_3 $T=48950 21555 0 180 $X=38910 $Y=14895
X98 SRC_BDY_HVC 21 DRN_HVC sky130_fd_pr__nfet_01v8__example_55959141808670 $T=25085 70180 0 0 $X=23510 $Y=70000
X99 SRC_BDY_HVC 21 DRN_HVC sky130_fd_pr__nfet_01v8__example_55959141808670 $T=25085 93180 0 0 $X=23510 $Y=93000
X100 SRC_BDY_HVC 21 DRN_HVC sky130_fd_pr__nfet_01v8__example_55959141808670 $T=25085 116180 0 0 $X=23510 $Y=116000
X101 SRC_BDY_HVC 21 DRN_HVC sky130_fd_pr__nfet_01v8__example_55959141808674 $T=15885 185180 0 0 $X=14310 $Y=185000
X102 SRC_BDY_HVC 21 DRN_HVC sky130_fd_pr__nfet_01v8__example_55959141808673 $T=15885 47180 0 0 $X=14310 $Y=47000
X103 SRC_BDY_HVC 21 DRN_HVC sky130_fd_pr__nfet_01v8__example_55959141808673 $T=15885 139180 0 0 $X=14310 $Y=139000
X104 SRC_BDY_HVC 21 DRN_HVC sky130_fd_pr__nfet_01v8__example_55959141808673 $T=15885 162180 0 0 $X=14310 $Y=162000
X105 DRN_HVC 18 sky130_fd_pr__res_bent_po__example_55959141808668 $T=9830 74355 0 90 $X=9480 $Y=74085
X106 DRN_HVC 19 21 sky130_fd_pr__pfet_01v8__example_55959141808665 $T=6340 29800 0 0 $X=5745 $Y=29470
X107 18 20 sky130_fd_pr__res_bent_po__example_55959141808667 $T=8360 43440 1 90 $X=1050 $Y=43170
.ENDS
***************************************
.SUBCKT sky130_ef_io__vdda_hvc_clamped_pad VSSD VSSA VDDIO VDDA VDDA_PAD
** N=13 EP=5 IP=17 FDC=241
*.CALIBRE ISOLATED NETS: VCCHIB VCCD VSSIO VSWITCH AMUXBUS_B AMUXBUS_A VSSIO_Q VDDIO_Q
X0 VSSD VSSA VDDA VDDIO VDDA VDDA_PAD sky130_fd_io__top_power_hvc_wpadv2 $T=0 -2035 0 0 $X=0 $Y=-2035
.ENDS
***************************************
.SUBCKT sky130_fd_io__top_ground_hvc_wpad VSSD SRC_BDY_HVC DRN_HVC VDDIO G_CORE G_PAD
** N=21 EP=6 IP=207 FDC=241
*.CALIBRE ISOLATED NETS: OGC_HVC VCCHIB VCCD VDDA VSSIO VSWITCH VSSA AMUXBUS_B AMUXBUS_A VSSIO_Q VDDIO_Q
R0 G_CORE G_PAD 0.01 m=1 $[short] $X=6670 $Y=105345 $D=269
X1 SRC_BDY_HVC VDDIO condiode a=1e-06 p=0.004 m=1 ahftempperim=0.004 $X=51225 $Y=21735 $D=150
X2 SRC_BDY_HVC VDDIO condiode a=1e-06 p=0.004 m=1 ahftempperim=0.004 $X=51225 $Y=45310 $D=150
X3 SRC_BDY_HVC VDDIO condiode a=1e-06 p=0.004 m=1 ahftempperim=0.004 $X=64770 $Y=40835 $D=150
X4 SRC_BDY_HVC VDDIO condiode a=1e-06 p=0.004 m=1 ahftempperim=0.004 $X=68375 $Y=197675 $D=150
X5 VSSD VDDIO Dpar a=126.883 p=0 m=1 $[nwdiode] $X=8835 $Y=43175 $D=183
X6 SRC_BDY_HVC VDDIO Dpar a=8184.99 p=443.22 m=1 $[dnwdiode_pw] $X=10695 $Y=45035 $D=188
X7 SRC_BDY_HVC VDDIO Dpar a=137.463 p=47.72 m=1 $[dnwdiode_pw] $X=53530 $Y=31395 $D=188
X8 SRC_BDY_HVC VDDIO Dpar a=1172.63 p=163 m=1 $[dnwdiode_pw] $X=13380 $Y=2205 $D=188
X9 VSSD VDDIO Dpar a=10358.7 p=619.08 m=1 $[dnwdiode_psub] $X=9500 $Y=133835 $D=187
X10 VSSD DRN_HVC Dpar a=376.949 p=101.73 m=1 $[nwdiode] $X=4400 $Y=28925 $D=185
X11 18 20 sky130_fd_pr__res_bent_po__example_55959141808669 $T=71055 43015 0 90 $X=70705 $Y=42745
X83 SRC_BDY_HVC 18 sky130_fd_pr__model__nfet_highvoltage__example_55959141808664 $T=61815 27145 0 180 $X=57370 $Y=21965
X84 SRC_BDY_HVC 18 sky130_fd_io__sio_clamp_pcap_4x5 $T=19920 9205 0 180 $X=13630 $Y=2455
X85 SRC_BDY_HVC 18 sky130_fd_io__sio_clamp_pcap_4x5 $T=19920 15425 0 180 $X=13630 $Y=8675
X86 SRC_BDY_HVC 18 sky130_fd_io__sio_clamp_pcap_4x5 $T=19920 21645 0 180 $X=13630 $Y=14895
X87 SRC_BDY_HVC 18 sky130_fd_io__sio_clamp_pcap_4x5 $T=68720 27865 0 180 $X=62430 $Y=21115
X88 SRC_BDY_HVC 18 sky130_fd_io__esd_rcclamp_nfetcap $T=68470 9115 0 180 $X=58430 $Y=2455
X89 SRC_BDY_HVC 18 sky130_fd_io__esd_rcclamp_nfetcap $T=68470 15335 0 180 $X=58430 $Y=8675
X90 SRC_BDY_HVC 18 sky130_fd_io__esd_rcclamp_nfetcap $T=68470 21555 0 180 $X=58430 $Y=14895
X91 SRC_BDY_HVC 18 19 sky130_fd_pr__nfet_01v8__example_55959141808677 $T=54915 32580 0 0 $X=54470 $Y=32400
X92 SRC_BDY_HVC 18 ICV_3 $T=29430 9115 0 180 $X=19390 $Y=2455
X93 SRC_BDY_HVC 18 ICV_3 $T=29430 15335 0 180 $X=19390 $Y=8675
X94 SRC_BDY_HVC 18 ICV_3 $T=29430 21555 0 180 $X=19390 $Y=14895
X95 SRC_BDY_HVC 18 ICV_3 $T=48950 9115 0 180 $X=38910 $Y=2455
X96 SRC_BDY_HVC 18 ICV_3 $T=48950 15335 0 180 $X=38910 $Y=8675
X97 SRC_BDY_HVC 18 ICV_3 $T=48950 21555 0 180 $X=38910 $Y=14895
X98 SRC_BDY_HVC 19 DRN_HVC sky130_fd_pr__nfet_01v8__example_55959141808670 $T=25085 70180 0 0 $X=23510 $Y=70000
X99 SRC_BDY_HVC 19 DRN_HVC sky130_fd_pr__nfet_01v8__example_55959141808670 $T=25085 93180 0 0 $X=23510 $Y=93000
X100 SRC_BDY_HVC 19 DRN_HVC sky130_fd_pr__nfet_01v8__example_55959141808670 $T=25085 116180 0 0 $X=23510 $Y=116000
X101 SRC_BDY_HVC 19 DRN_HVC sky130_fd_pr__nfet_01v8__example_55959141808674 $T=15885 185180 0 0 $X=14310 $Y=185000
X102 SRC_BDY_HVC 19 DRN_HVC sky130_fd_pr__nfet_01v8__example_55959141808673 $T=15885 47180 0 0 $X=14310 $Y=47000
X103 SRC_BDY_HVC 19 DRN_HVC sky130_fd_pr__nfet_01v8__example_55959141808673 $T=15885 139180 0 0 $X=14310 $Y=139000
X104 SRC_BDY_HVC 19 DRN_HVC sky130_fd_pr__nfet_01v8__example_55959141808673 $T=15885 162180 0 0 $X=14310 $Y=162000
X105 DRN_HVC 21 sky130_fd_pr__res_bent_po__example_55959141808668 $T=9830 74355 0 90 $X=9480 $Y=74085
X106 DRN_HVC 18 19 sky130_fd_pr__pfet_01v8__example_55959141808665 $T=6340 29800 0 0 $X=5745 $Y=29470
X107 21 20 sky130_fd_pr__res_bent_po__example_55959141808667 $T=8360 43440 1 90 $X=1050 $Y=43170
.ENDS
***************************************
.SUBCKT sky130_ef_io__vssa_hvc_clamped_pad VSSD VDDIO VSSA VDDA VSSA_PAD
** N=13 EP=5 IP=17 FDC=241
*.CALIBRE ISOLATED NETS: VCCHIB VCCD VSSIO VSWITCH AMUXBUS_B AMUXBUS_A VSSIO_Q VDDIO_Q
X0 VSSD VSSA VDDA VDDIO VSSA VSSA_PAD sky130_fd_io__top_ground_hvc_wpad $T=0 -2035 0 0 $X=0 $Y=-2035
.ENDS
***************************************
.SUBCKT sky130_fd_pr__res_bent_po__example_55959141808692 2 3
** N=3 EP=2 IP=0 FDC=1
R0 3 2 L=900 W=0.33 m=1 $[mrp1] $X=-250 $Y=-3240 $D=250
.ENDS
***************************************
.SUBCKT sky130_fd_pr__pfet_01v8__example_55959141808687 2 3 4
** N=4 EP=3 IP=33 FDC=10
*.SEEDPROM
M0 4 3 2 2 pshort L=0.18 W=7 m=1 r=38.8889 a=1.26 p=14.36 mult=1 $X=0 $Y=0 $D=79
M1 2 3 4 2 pshort L=0.18 W=7 m=1 r=38.8889 a=1.26 p=14.36 mult=1 $X=460 $Y=0 $D=79
M2 4 3 2 2 pshort L=0.18 W=7 m=1 r=38.8889 a=1.26 p=14.36 mult=1 $X=920 $Y=0 $D=79
M3 2 3 4 2 pshort L=0.18 W=7 m=1 r=38.8889 a=1.26 p=14.36 mult=1 $X=1380 $Y=0 $D=79
M4 4 3 2 2 pshort L=0.18 W=7 m=1 r=38.8889 a=1.26 p=14.36 mult=1 $X=1840 $Y=0 $D=79
M5 2 3 4 2 pshort L=0.18 W=7 m=1 r=38.8889 a=1.26 p=14.36 mult=1 $X=2300 $Y=0 $D=79
M6 4 3 2 2 pshort L=0.18 W=7 m=1 r=38.8889 a=1.26 p=14.36 mult=1 $X=2760 $Y=0 $D=79
M7 2 3 4 2 pshort L=0.18 W=7 m=1 r=38.8889 a=1.26 p=14.36 mult=1 $X=3220 $Y=0 $D=79
M8 4 3 2 2 pshort L=0.18 W=7 m=1 r=38.8889 a=1.26 p=14.36 mult=1 $X=3680 $Y=0 $D=79
M9 2 3 4 2 pshort L=0.18 W=7 m=1 r=38.8889 a=1.26 p=14.36 mult=1 $X=4140 $Y=0 $D=79
.ENDS
***************************************
.SUBCKT sky130_fd_pr__dfl1__example_55959141808682
** N=2 EP=0 IP=0 FDC=0
.ENDS
***************************************
.SUBCKT ICV_8
** N=2 EP=0 IP=4 FDC=0
.ENDS
***************************************
.SUBCKT sky130_fd_pr__dfl1__example_55959141808681
** N=2 EP=0 IP=0 FDC=0
.ENDS
***************************************
.SUBCKT ICV_9
** N=2 EP=0 IP=4 FDC=0
.ENDS
***************************************
.SUBCKT sky130_fd_pr__res_bent_po__example_55959141808691 2 3
** N=3 EP=2 IP=0 FDC=1
R0 3 2 L=200 W=0.33 m=1 $[mrp1] $X=-250 $Y=-9720 $D=250
.ENDS
***************************************
.SUBCKT sky130_fd_pr__hvdfl1sd__example_55959141808700
** N=1 EP=0 IP=0 FDC=0
.ENDS
***************************************
.SUBCKT sky130_fd_pr__hvdfl1sd2__example_55959141808559
** N=2 EP=0 IP=0 FDC=0
.ENDS
***************************************
.SUBCKT sky130_fd_pr__nfet_01v8__example_55959141808699 1 2
** N=2 EP=2 IP=10 FDC=5
M0 1 2 1 1 nshort L=8 W=7 m=1 r=0.875 a=56 p=30 mult=1 $X=0 $Y=0 $D=9
M1 1 2 1 1 nshort L=8 W=7 m=1 r=0.875 a=56 p=30 mult=1 $X=8280 $Y=0 $D=9
M2 1 2 1 1 nshort L=8 W=7 m=1 r=0.875 a=56 p=30 mult=1 $X=16560 $Y=0 $D=9
M3 1 2 1 1 nshort L=8 W=7 m=1 r=0.875 a=56 p=30 mult=1 $X=24840 $Y=0 $D=9
M4 1 2 1 1 nshort L=8 W=7 m=1 r=0.875 a=56 p=30 mult=1 $X=33120 $Y=0 $D=9
.ENDS
***************************************
.SUBCKT sky130_fd_pr__dftpl1s2__example_55959141808702
** N=1 EP=0 IP=0 FDC=0
.ENDS
***************************************
.SUBCKT sky130_fd_pr__nfet_01v8__example_55959141808704 1 2 3
** N=3 EP=3 IP=11 FDC=22
M0 3 2 1 1 nshort L=0.18 W=7 m=1 r=38.8889 a=1.26 p=14.36 mult=1 $X=0 $Y=0 $D=9
M1 1 2 3 1 nshort L=0.18 W=7 m=1 r=38.8889 a=1.26 p=14.36 mult=1 $X=1350 $Y=0 $D=9
M2 3 2 1 1 nshort L=0.18 W=7 m=1 r=38.8889 a=1.26 p=14.36 mult=1 $X=4180 $Y=0 $D=9
M3 1 2 3 1 nshort L=0.18 W=7 m=1 r=38.8889 a=1.26 p=14.36 mult=1 $X=5530 $Y=0 $D=9
M4 3 2 1 1 nshort L=0.18 W=7 m=1 r=38.8889 a=1.26 p=14.36 mult=1 $X=8360 $Y=0 $D=9
M5 1 2 3 1 nshort L=0.18 W=7 m=1 r=38.8889 a=1.26 p=14.36 mult=1 $X=9710 $Y=0 $D=9
M6 3 2 1 1 nshort L=0.18 W=7 m=1 r=38.8889 a=1.26 p=14.36 mult=1 $X=12540 $Y=0 $D=9