* SPICE NETLIST
***************************************


***************************************
.SUBCKT sky130_fd_pr__pfet_01v8__example_55959141808687 2 3 4
**
*.SEEDPROM
XM0 4 3 2 2 sky130_fd_pr__pfet_01v8 L=0.18 W=7 AD=0.98 AS=1.96 PD=7.28 PS=14.56 NRD=0 NRS=0 m=1 sa=90000.2 sb=90004.3 a=1.26 p=14.36
XM1 2 3 4 2 sky130_fd_pr__pfet_01v8 L=0.18 W=7 AD=0.98 AS=0.98 PD=7.28 PS=7.28 NRD=0 NRS=0 m=1 sa=90000.7 sb=90003.9 a=1.26 p=14.36
XM2 4 3 2 2 sky130_fd_pr__pfet_01v8 L=0.18 W=7 AD=0.98 AS=0.98 PD=7.28 PS=7.28 NRD=0 NRS=0 m=1 sa=90001.1 sb=90003.4 a=1.26 p=14.36
XM3 2 3 4 2 sky130_fd_pr__pfet_01v8 L=0.18 W=7 AD=0.98 AS=0.98 PD=7.28 PS=7.28 NRD=0 NRS=0 m=1 sa=90001.6 sb=90002.9 a=1.26 p=14.36
XM4 4 3 2 2 sky130_fd_pr__pfet_01v8 L=0.18 W=7 AD=0.98 AS=0.98 PD=7.28 PS=7.28 NRD=0 NRS=0 m=1 sa=90002 sb=90002.5 a=1.26 p=14.36
XM5 2 3 4 2 sky130_fd_pr__pfet_01v8 L=0.18 W=7 AD=0.98 AS=0.98 PD=7.28 PS=7.28 NRD=0 NRS=0 m=1 sa=90002.5 sb=90002 a=1.26 p=14.36
XM6 4 3 2 2 sky130_fd_pr__pfet_01v8 L=0.18 W=7 AD=0.98 AS=0.98 PD=7.28 PS=7.28 NRD=0 NRS=0 m=1 sa=90002.9 sb=90001.6 a=1.26 p=14.36
XM7 2 3 4 2 sky130_fd_pr__pfet_01v8 L=0.18 W=7 AD=0.98 AS=0.98 PD=7.28 PS=7.28 NRD=0 NRS=0 m=1 sa=90003.4 sb=90001.1 a=1.26 p=14.36
XM8 4 3 2 2 sky130_fd_pr__pfet_01v8 L=0.18 W=7 AD=0.98 AS=0.98 PD=7.28 PS=7.28 NRD=0 NRS=0 m=1 sa=90003.9 sb=90000.7 a=1.26 p=14.36
XM9 2 3 4 2 sky130_fd_pr__pfet_01v8 L=0.18 W=7 AD=1.96 AS=0.98 PD=14.56 PS=7.28 NRD=0 NRS=0 m=1 sa=90004.3 sb=90000.2 a=1.26 p=14.36
.ENDS
***************************************

***************************************
.SUBCKT sky130_fd_pr__nfet_01v8__example_55959141808701 2
**
*.SEEDPROM
X0 2 2 sky130_fd_pr__diode_pw2nd_05v5 a=2.1 p=14.6 m=1
X1 2 2 sky130_fd_pr__diode_pw2nd_05v5 a=2.1 p=14.6 m=1
.ENDS
***************************************
.SUBCKT sky130_fd_pr__nfet_01v8__example_55959141808703 2
**
*.SEEDPROM
X0 2 2 sky130_fd_pr__diode_pw2nd_05v5 a=2.1 p=14.6 m=1
X1 2 2 sky130_fd_pr__diode_pw2nd_05v5 a=2.1 p=14.6 m=1
.ENDS
***************************************
.SUBCKT sky130_fd_pr__nfet_01v8__example_55959141808705 2
**
*.SEEDPROM
X0 2 2 sky130_fd_pr__diode_pw2nd_05v5 a=2.1 p=14.6 m=1
X1 2 2 sky130_fd_pr__diode_pw2nd_05v5 a=2.1 p=14.6 m=1
.ENDS
***************************************
.SUBCKT sky130_fd_pr__nfet_01v8__example_55959141808693 1
**
*.SEEDPROM
X0 1 1 sky130_fd_pr__diode_pw2nd_05v5 a=1.5 p=10.6 m=1
X1 1 1 sky130_fd_pr__diode_pw2nd_05v5 a=1.5 p=10.6 m=1
.ENDS
***************************************
.SUBCKT sky130_ef_io__vccd_lvc_clamped2_pad   VSSD VSSIO VCCD VDDIO VSSA VCCHIB VDDA VSWITCH AMUXBUS_B AMUXBUS_A VSSIO_Q VDDIO_Q
**
XM0 VCCD 11 VSSD VSSD sky130_fd_pr__nfet_01v8 L=0.18 W=7 AD=3.535 AS=3.5 PD=8.01 PS=15 NRD=3.336 NRS=3.42 m=1 sa=90001.1 sb=90019.9 a=1.26 p=14.36
XM1 VCCD 11 VSSD VSSD sky130_fd_pr__nfet_01v8 L=0.18 W=7 AD=3.535 AS=3.5 PD=8.01 PS=15 NRD=3.336 NRS=3.42 m=1 sa=90001.1 sb=90019.9 a=1.26 p=14.36
XM2 VCCD 11 VSSD VSSD sky130_fd_pr__nfet_01v8 L=0.18 W=7 AD=3.535 AS=3.5 PD=8.01 PS=15 NRD=3.336 NRS=3.42 m=1 sa=90001.1 sb=90019.9 a=1.26 p=14.36
XM3 VCCD 11 VSSD VSSD sky130_fd_pr__nfet_01v8 L=0.18 W=7 AD=3.535 AS=3.5 PD=8.01 PS=15 NRD=3.336 NRS=3.42 m=1 sa=90001.1 sb=90019.9 a=1.26 p=14.36
XM4 VCCD 11 VSSD VSSD sky130_fd_pr__nfet_01v8 L=0.18 W=5 AD=2.525 AS=2.5 PD=6.01 PS=11 NRD=4.68 NRS=4.8 m=1 sa=90001.1 sb=90019.9 a=0.9 p=10.36
XM5 VCCD 7 VSSIO VSSIO sky130_fd_pr__nfet_01v8 L=0.18 W=7 AD=3.535 AS=3.5 PD=8.01 PS=15 NRD=3.336 NRS=3.42 m=1 sa=90001.1 sb=90019.9 a=1.26 p=14.36
XM6 VSSD 11 VCCD VSSD sky130_fd_pr__nfet_01v8 L=0.18 W=7 AD=3.5 AS=3.535 PD=15 PS=8.01 NRD=3.42 NRS=3.336 m=1 sa=90002.3 sb=90019.9 a=1.26 p=14.36
XM7 VSSD 11 VCCD VSSD sky130_fd_pr__nfet_01v8 L=0.18 W=7 AD=3.5 AS=3.535 PD=15 PS=8.01 NRD=3.42 NRS=3.336 m=1 sa=90002.3 sb=90019.9 a=1.26 p=14.36
XM8 VSSD 11 VCCD VSSD sky130_fd_pr__nfet_01v8 L=0.18 W=7 AD=3.5 AS=3.535 PD=15 PS=8.01 NRD=3.42 NRS=3.336 m=1 sa=90002.3 sb=90019.9 a=1.26 p=14.36
XM9 VSSD 11 VCCD VSSD sky130_fd_pr__nfet_01v8 L=0.18 W=7 AD=3.5 AS=3.535 PD=15 PS=8.01 NRD=3.42 NRS=3.336 m=1 sa=90002.3 sb=90019.9 a=1.26 p=14.36
XM10 VSSD 11 VCCD VSSD sky130_fd_pr__nfet_01v8 L=0.18 W=5 AD=2.5 AS=2.525 PD=11 PS=6.01 NRD=4.8 NRS=4.68 m=1 sa=90002.3 sb=90019.9 a=0.9 p=10.36
XM11 VSSIO 7 VCCD VSSIO sky130_fd_pr__nfet_01v8 L=0.18 W=7 AD=3.5 AS=3.535 PD=15 PS=8.01 NRD=3.42 NRS=3.336 m=1 sa=90002.3 sb=90019.9 a=1.26 p=14.36
XM12 VSSD 9 VSSD VSSD sky130_fd_pr__nfet_01v8 L=4 W=5 AD=0.7 AS=1.325 PD=5.28 PS=10.53 NRD=0 NRS=0 m=1 sa=2e+06 sb=2.00002e+06 a=20 p=18
XM13 VCCD 11 VSSD VSSD sky130_fd_pr__nfet_01v8 L=0.18 W=7 AD=3.535 AS=3.5 PD=8.01 PS=15 NRD=3.336 NRS=3.42 m=1 sa=90003.9 sb=90019.9 a=1.26 p=14.36
XM14 VCCD 11 VSSD VSSD sky130_fd_pr__nfet_01v8 L=0.18 W=7 AD=3.535 AS=3.5 PD=8.01 PS=15 NRD=3.336 NRS=3.42 m=1 sa=90003.9 sb=90019.9 a=1.26 p=14.36
XM15 VCCD 11 VSSD VSSD sky130_fd_pr__nfet_01v8 L=0.18 W=7 AD=3.535 AS=3.5 PD=8.01 PS=15 NRD=3.336 NRS=3.42 m=1 sa=90003.9 sb=90019.9 a=1.26 p=14.36
XM16 VCCD 11 VSSD VSSD sky130_fd_pr__nfet_01v8 L=0.18 W=7 AD=3.535 AS=3.5 PD=8.01 PS=15 NRD=3.336 NRS=3.42 m=1 sa=90003.9 sb=90019.9 a=1.26 p=14.36
XM17 VCCD 11 VSSD VSSD sky130_fd_pr__nfet_01v8 L=0.18 W=5 AD=2.525 AS=2.5 PD=6.01 PS=11 NRD=4.68 NRS=4.8 m=1 sa=90003.9 sb=90019.9 a=0.9 p=10.36
XM18 VCCD 7 VSSIO VSSIO sky130_fd_pr__nfet_01v8 L=0.18 W=7 AD=3.535 AS=3.5 PD=8.01 PS=15 NRD=3.336 NRS=3.42 m=1 sa=90001.1 sb=90019.9 a=1.26 p=14.36
XM19 VCCD 7 VSSIO VSSIO sky130_fd_pr__nfet_01v8 L=0.18 W=7 AD=3.535 AS=3.5 PD=8.01 PS=15 NRD=3.336 NRS=3.42 m=1 sa=90003.9 sb=90019.9 a=1.26 p=14.36
XM20 VCCD 7 VSSIO VSSIO sky130_fd_pr__nfet_01v8 L=0.18 W=7 AD=4.095 AS=7.875 PD=8.17 PS=16.25 NRD=4.704 NRS=14.136 m=1 sa=90001.7 sb=90019.9 a=1.26 p=14.36
XM21 VCCD 7 VSSIO VSSIO sky130_fd_pr__nfet_01v8 L=0.18 W=7 AD=4.095 AS=7.875 PD=8.17 PS=16.25 NRD=4.704 NRS=14.136 m=1 sa=90001.7 sb=90019.9 a=1.26 p=14.36
XM22 VCCD 7 VSSIO VSSIO sky130_fd_pr__nfet_01v8 L=0.18 W=7 AD=4.095 AS=7.875 PD=8.17 PS=16.25 NRD=4.704 NRS=14.136 m=1 sa=90001.7 sb=90019.9 a=1.26 p=14.36
XM23 VSSD 11 VCCD VSSD sky130_fd_pr__nfet_01v8 L=0.18 W=7 AD=3.5 AS=3.535 PD=15 PS=8.01 NRD=3.42 NRS=3.336 m=1 sa=90005.1 sb=90019.9 a=1.26 p=14.36
XM24 VSSD 11 VCCD VSSD sky130_fd_pr__nfet_01v8 L=0.18 W=7 AD=3.5 AS=3.535 PD=15 PS=8.01 NRD=3.42 NRS=3.336 m=1 sa=90005.1 sb=90019.9 a=1.26 p=14.36
XM25 VSSD 11 VCCD VSSD sky130_fd_pr__nfet_01v8 L=0.18 W=7 AD=3.5 AS=3.535 PD=15 PS=8.01 NRD=3.42 NRS=3.336 m=1 sa=90005.1 sb=90019.9 a=1.26 p=14.36
XM26 VSSD 11 VCCD VSSD sky130_fd_pr__nfet_01v8 L=0.18 W=7 AD=3.5 AS=3.535 PD=15 PS=8.01 NRD=3.42 NRS=3.336 m=1 sa=90005.1 sb=90019.9 a=1.26 p=14.36
XM27 VSSD 11 VCCD VSSD sky130_fd_pr__nfet_01v8 L=0.18 W=5 AD=2.5 AS=2.525 PD=11 PS=6.01 NRD=4.8 NRS=4.68 m=1 sa=90005.1 sb=90019.9 a=0.9 p=10.36
XM28 VSSIO 7 VCCD VSSIO sky130_fd_pr__nfet_01v8 L=0.18 W=7 AD=3.5 AS=3.535 PD=15 PS=8.01 NRD=3.42 NRS=3.336 m=1 sa=90002.3 sb=90019.9 a=1.26 p=14.36
XM29 VSSIO 7 VCCD VSSIO sky130_fd_pr__nfet_01v8 L=0.18 W=7 AD=3.5 AS=3.535 PD=15 PS=8.01 NRD=3.42 NRS=3.336 m=1 sa=90005.1 sb=90019.9 a=1.26 p=14.36
XM30 VSSIO 7 VCCD VSSIO sky130_fd_pr__nfet_01v8 L=0.18 W=7 AD=7.875 AS=4.095 PD=16.25 PS=8.17 NRD=14.136 NRS=4.704 m=1 sa=90003.1 sb=90019.9 a=1.26 p=14.36
XM31 VSSIO 7 VCCD VSSIO sky130_fd_pr__nfet_01v8 L=0.18 W=7 AD=7.875 AS=4.095 PD=16.25 PS=8.17 NRD=14.136 NRS=4.704 m=1 sa=90003.1 sb=90019.9 a=1.26 p=14.36
XM32 VSSIO 7 VCCD VSSIO sky130_fd_pr__nfet_01v8 L=0.18 W=7 AD=7.875 AS=4.095 PD=16.25 PS=8.17 NRD=14.136 NRS=4.704 m=1 sa=90003.1 sb=90019.9 a=1.26 p=14.36
XM33 VCCD 11 VSSD VSSD sky130_fd_pr__nfet_01v8 L=0.18 W=7 AD=3.535 AS=3.5 PD=8.01 PS=15 NRD=3.336 NRS=3.42 m=1 sa=90006.6 sb=90019.9 a=1.26 p=14.36
XM34 VCCD 11 VSSD VSSD sky130_fd_pr__nfet_01v8 L=0.18 W=7 AD=3.535 AS=3.5 PD=8.01 PS=15 NRD=3.336 NRS=3.42 m=1 sa=90006.6 sb=90019.9 a=1.26 p=14.36
XM35 VCCD 11 VSSD VSSD sky130_fd_pr__nfet_01v8 L=0.18 W=7 AD=3.535 AS=3.5 PD=8.01 PS=15 NRD=3.336 NRS=3.42 m=1 sa=90006.6 sb=90019.9 a=1.26 p=14.36
XM36 VCCD 11 VSSD VSSD sky130_fd_pr__nfet_01v8 L=0.18 W=7 AD=3.535 AS=3.5 PD=8.01 PS=15 NRD=3.336 NRS=3.42 m=1 sa=90006.6 sb=90019.9 a=1.26 p=14.36
XM37 VCCD 11 VSSD VSSD sky130_fd_pr__nfet_01v8 L=0.18 W=5 AD=2.525 AS=2.5 PD=6.01 PS=11 NRD=4.68 NRS=4.8 m=1 sa=90006.6 sb=90019.9 a=0.9 p=10.36
XM38 VCCD 7 VSSIO VSSIO sky130_fd_pr__nfet_01v8 L=0.18 W=7 AD=3.535 AS=3.5 PD=8.01 PS=15 NRD=3.336 NRS=3.42 m=1 sa=90003.9 sb=90019.9 a=1.26 p=14.36
XM39 VCCD 7 VSSIO VSSIO sky130_fd_pr__nfet_01v8 L=0.18 W=7 AD=3.535 AS=3.5 PD=8.01 PS=15 NRD=3.336 NRS=3.42 m=1 sa=90006.6 sb=90019.9 a=1.26 p=14.36
XM40 VSSD 11 VCCD VSSD sky130_fd_pr__nfet_01v8 L=0.18 W=7 AD=3.5 AS=3.535 PD=15 PS=8.01 NRD=3.42 NRS=3.336 m=1 sa=90007.8 sb=90019.9 a=1.26 p=14.36
XM41 VSSD 11 VCCD VSSD sky130_fd_pr__nfet_01v8 L=0.18 W=7 AD=3.5 AS=3.535 PD=15 PS=8.01 NRD=3.42 NRS=3.336 m=1 sa=90007.8 sb=90019.9 a=1.26 p=14.36
XM42 VSSD 11 VCCD VSSD sky130_fd_pr__nfet_01v8 L=0.18 W=7 AD=3.5 AS=3.535 PD=15 PS=8.01 NRD=3.42 NRS=3.336 m=1 sa=90007.8 sb=90019.9 a=1.26 p=14.36
XM43 VSSD 11 VCCD VSSD sky130_fd_pr__nfet_01v8 L=0.18 W=7 AD=3.5 AS=3.535 PD=15 PS=8.01 NRD=3.42 NRS=3.336 m=1 sa=90007.8 sb=90019.9 a=1.26 p=14.36
XM44 VSSD 11 VCCD VSSD sky130_fd_pr__nfet_01v8 L=0.18 W=5 AD=2.5 AS=2.525 PD=11 PS=6.01 NRD=4.8 NRS=4.68 m=1 sa=90007.8 sb=90019.9 a=0.9 p=10.36
XM45 VSSIO 7 VCCD VSSIO sky130_fd_pr__nfet_01v8 L=0.18 W=7 AD=3.5 AS=3.535 PD=15 PS=8.01 NRD=3.42 NRS=3.336 m=1 sa=90005.1 sb=90019.9 a=1.26 p=14.36
XM46 VSSIO 7 VCCD VSSIO sky130_fd_pr__nfet_01v8 L=0.18 W=7 AD=3.5 AS=3.535 PD=15 PS=8.01 NRD=3.42 NRS=3.336 m=1 sa=90007.8 sb=90019.9 a=1.26 p=14.36
XM47 VCCD 7 VSSIO VSSIO sky130_fd_pr__nfet_01v8 L=0.18 W=7 AD=4.095 AS=7.875 PD=8.17 PS=16.25 NRD=4.704 NRS=14.136 m=1 sa=90005.9 sb=90019.9 a=1.26 p=14.36
XM48 VCCD 7 VSSIO VSSIO sky130_fd_pr__nfet_01v8 L=0.18 W=7 AD=4.095 AS=7.875 PD=8.17 PS=16.25 NRD=4.704 NRS=14.136 m=1 sa=90005.9 sb=90019.9 a=1.26 p=14.36
XM49 VCCD 7 VSSIO VSSIO sky130_fd_pr__nfet_01v8 L=0.18 W=7 AD=4.095 AS=7.875 PD=8.17 PS=16.25 NRD=4.704 NRS=14.136 m=1 sa=90005.9 sb=90019.9 a=1.26 p=14.36
XM50 VCCD 11 VSSD VSSD sky130_fd_pr__nfet_01v8 L=0.18 W=7 AD=3.535 AS=3.5 PD=8.01 PS=15 NRD=3.336 NRS=3.42 m=1 sa=90009.4 sb=90019.9 a=1.26 p=14.36
XM51 VCCD 11 VSSD VSSD sky130_fd_pr__nfet_01v8 L=0.18 W=7 AD=3.535 AS=3.5 PD=8.01 PS=15 NRD=3.336 NRS=3.42 m=1 sa=90009.4 sb=90019.9 a=1.26 p=14.36
XM52 VCCD 11 VSSD VSSD sky130_fd_pr__nfet_01v8 L=0.18 W=7 AD=3.535 AS=3.5 PD=8.01 PS=15 NRD=3.336 NRS=3.42 m=1 sa=90009.4 sb=90019.9 a=1.26 p=14.36
XM53 VCCD 11 VSSD VSSD sky130_fd_pr__nfet_01v8 L=0.18 W=7 AD=3.535 AS=3.5 PD=8.01 PS=15 NRD=3.336 NRS=3.42 m=1 sa=90009.4 sb=90019.9 a=1.26 p=14.36
XM54 VCCD 11 VSSD VSSD sky130_fd_pr__nfet_01v8 L=0.18 W=5 AD=2.525 AS=2.5 PD=6.01 PS=11 NRD=4.68 NRS=4.8 m=1 sa=90009.4 sb=90019.9 a=0.9 p=10.36
XM55 VCCD 7 VSSIO VSSIO sky130_fd_pr__nfet_01v8 L=0.18 W=7 AD=3.535 AS=3.5 PD=8.01 PS=15 NRD=3.336 NRS=3.42 m=1 sa=90006.6 sb=90019.9 a=1.26 p=14.36
XM56 VCCD 7 VSSIO VSSIO sky130_fd_pr__nfet_01v8 L=0.18 W=7 AD=3.535 AS=3.5 PD=8.01 PS=15 NRD=3.336 NRS=3.42 m=1 sa=90009.4 sb=90019.9 a=1.26 p=14.36
XM57 VSSIO 7 VCCD VSSIO sky130_fd_pr__nfet_01v8 L=0.18 W=7 AD=7.875 AS=4.095 PD=16.25 PS=8.17 NRD=14.136 NRS=4.704 m=1 sa=90007.3 sb=90019.9 a=1.26 p=14.36
XM58 VSSIO 7 VCCD VSSIO sky130_fd_pr__nfet_01v8 L=0.18 W=7 AD=7.875 AS=4.095 PD=16.25 PS=8.17 NRD=14.136 NRS=4.704 m=1 sa=90007.3 sb=90019.9 a=1.26 p=14.36
XM59 VSSIO 7 VCCD VSSIO sky130_fd_pr__nfet_01v8 L=0.18 W=7 AD=7.875 AS=4.095 PD=16.25 PS=8.17 NRD=14.136 NRS=4.704 m=1 sa=90007.3 sb=90019.9 a=1.26 p=14.36
XM60 VSSD 11 VCCD VSSD sky130_fd_pr__nfet_01v8 L=0.18 W=7 AD=3.5 AS=3.535 PD=15 PS=8.01 NRD=3.42 NRS=3.336 m=1 sa=90010.6 sb=90019.9 a=1.26 p=14.36
XM61 VSSD 11 VCCD VSSD sky130_fd_pr__nfet_01v8 L=0.18 W=7 AD=3.5 AS=3.535 PD=15 PS=8.01 NRD=3.42 NRS=3.336 m=1 sa=90010.6 sb=90019.9 a=1.26 p=14.36
XM62 VSSD 11 VCCD VSSD sky130_fd_pr__nfet_01v8 L=0.18 W=7 AD=3.5 AS=3.535 PD=15 PS=8.01 NRD=3.42 NRS=3.336 m=1 sa=90010.6 sb=90019.9 a=1.26 p=14.36
XM63 VSSD 11 VCCD VSSD sky130_fd_pr__nfet_01v8 L=0.18 W=7 AD=3.5 AS=3.535 PD=15 PS=8.01 NRD=3.42 NRS=3.336 m=1 sa=90010.6 sb=90019.9 a=1.26 p=14.36
XM64 VSSD 11 VCCD VSSD sky130_fd_pr__nfet_01v8 L=0.18 W=5 AD=2.5 AS=2.525 PD=11 PS=6.01 NRD=4.8 NRS=4.68 m=1 sa=90010.6 sb=90019.9 a=0.9 p=10.36
XM65 VSSIO 7 VCCD VSSIO sky130_fd_pr__nfet_01v8 L=0.18 W=7 AD=3.5 AS=3.535 PD=15 PS=8.01 NRD=3.42 NRS=3.336 m=1 sa=90007.8 sb=90019.9 a=1.26 p=14.36
XM66 VSSIO 7 VCCD VSSIO sky130_fd_pr__nfet_01v8 L=0.18 W=7 AD=3.5 AS=3.535 PD=15 PS=8.01 NRD=3.42 NRS=3.336 m=1 sa=90010.6 sb=90019.9 a=1.26 p=14.36
XM67 VSSD 9 11 VSSD sky130_fd_pr__nfet_01v8 L=0.18 W=7 AD=2.3975 AS=4.76 PD=7.685 PS=15.36 NRD=6.936 NRS=6.852 m=1 sa=90000.6 sb=90019.9 a=1.26 p=14.36
XM68 VSSD 9 11 VSSD sky130_fd_pr__nfet_01v8 L=0.18 W=7 AD=2.3975 AS=4.76 PD=7.685 PS=15.36 NRD=6.936 NRS=6.852 m=1 sa=90000.6 sb=90019.9 a=1.26 p=14.36
XM69 VSSIO 5 7 VSSIO sky130_fd_pr__nfet_01v8 L=0.18 W=7 AD=2.3975 AS=4.76 PD=7.685 PS=15.36 NRD=6.936 NRS=6.852 m=1 sa=90000.6 sb=90019.9 a=1.26 p=14.36
XM70 VSSIO 5 7 VSSIO sky130_fd_pr__nfet_01v8 L=0.18 W=7 AD=2.3975 AS=4.76 PD=7.685 PS=15.36 NRD=6.936 NRS=6.852 m=1 sa=90000.6 sb=90019.9 a=1.26 p=14.36
XM71 VSSIO 5 7 VSSIO sky130_fd_pr__nfet_01v8 L=0.18 W=7 AD=2.3975 AS=4.76 PD=7.685 PS=15.36 NRD=6.936 NRS=6.852 m=1 sa=90000.6 sb=90019.9 a=1.26 p=14.36
XM72 VSSD 9 VSSD VSSD sky130_fd_pr__nfet_01v8 L=8 W=5 AD=0.7 AS=0.7 PD=5.28 PS=5.28 NRD=0 NRS=0 m=1 sa=4e+06 sb=4.00002e+06 a=40 p=26
XM73 VCCD 11 VSSD VSSD sky130_fd_pr__nfet_01v8 L=0.18 W=7 AD=3.535 AS=3.5 PD=8.01 PS=15 NRD=3.336 NRS=3.42 m=1 sa=90012.2 sb=90019.9 a=1.26 p=14.36
XM74 VCCD 11 VSSD VSSD sky130_fd_pr__nfet_01v8 L=0.18 W=7 AD=3.535 AS=3.5 PD=8.01 PS=15 NRD=3.336 NRS=3.42 m=1 sa=90012.2 sb=90019.9 a=1.26 p=14.36
XM75 VCCD 11 VSSD VSSD sky130_fd_pr__nfet_01v8 L=0.18 W=7 AD=3.535 AS=3.5 PD=8.01 PS=15 NRD=3.336 NRS=3.42 m=1 sa=90012.2 sb=90019.9 a=1.26 p=14.36
XM76 VCCD 11 VSSD VSSD sky130_fd_pr__nfet_01v8 L=0.18 W=7 AD=3.535 AS=3.5 PD=8.01 PS=15 NRD=3.336 NRS=3.42 m=1 sa=90012.2 sb=90019.9 a=1.26 p=14.36
XM77 VCCD 11 VSSD VSSD sky130_fd_pr__nfet_01v8 L=0.18 W=5 AD=2.525 AS=2.5 PD=6.01 PS=11 NRD=4.68 NRS=4.8 m=1 sa=90012.2 sb=90019.9 a=0.9 p=10.36
XM78 VCCD 7 VSSIO VSSIO sky130_fd_pr__nfet_01v8 L=0.18 W=7 AD=3.535 AS=3.5 PD=8.01 PS=15 NRD=3.336 NRS=3.42 m=1 sa=90009.4 sb=90019.9 a=1.26 p=14.36
XM79 VCCD 7 VSSIO VSSIO sky130_fd_pr__nfet_01v8 L=0.18 W=7 AD=3.535 AS=3.5 PD=8.01 PS=15 NRD=3.336 NRS=3.42 m=1 sa=90012.2 sb=90019.9 a=1.26 p=14.36
XM80 VCCD 7 VSSIO VSSIO sky130_fd_pr__nfet_01v8 L=0.18 W=5 AD=2.925 AS=5.625 PD=6.17 PS=12.25 NRD=6.6 NRS=19.788 m=1 sa=90001.7 sb=90019.9 a=0.9 p=10.36
XM81 VCCD 7 VSSIO VSSIO sky130_fd_pr__nfet_01v8 L=0.18 W=7 AD=4.095 AS=7.875 PD=8.17 PS=16.25 NRD=4.704 NRS=14.136 m=1 sa=90001.7 sb=90019.9 a=1.26 p=14.36
XM82 VCCD 7 VSSIO VSSIO sky130_fd_pr__nfet_01v8 L=0.18 W=7 AD=4.095 AS=7.875 PD=8.17 PS=16.25 NRD=4.704 NRS=14.136 m=1 sa=90010.1 sb=90019.9 a=1.26 p=14.36
XM83 VCCD 7 VSSIO VSSIO sky130_fd_pr__nfet_01v8 L=0.18 W=7 AD=4.095 AS=7.875 PD=8.17 PS=16.25 NRD=4.704 NRS=14.136 m=1 sa=90010.1 sb=90019.9 a=1.26 p=14.36
XM84 VCCD 7 VSSIO VSSIO sky130_fd_pr__nfet_01v8 L=0.18 W=7 AD=4.095 AS=7.875 PD=8.17 PS=16.25 NRD=4.704 NRS=14.136 m=1 sa=90010.1 sb=90019.9 a=1.26 p=14.36
XM85 VSSD 11 VCCD VSSD sky130_fd_pr__nfet_01v8 L=0.18 W=7 AD=3.5 AS=3.535 PD=15 PS=8.01 NRD=3.42 NRS=3.336 m=1 sa=90013.4 sb=90019.9 a=1.26 p=14.36
XM86 VSSD 11 VCCD VSSD sky130_fd_pr__nfet_01v8 L=0.18 W=7 AD=3.5 AS=3.535 PD=15 PS=8.01 NRD=3.42 NRS=3.336 m=1 sa=90013.4 sb=90019.9 a=1.26 p=14.36
XM87 VSSD 11 VCCD VSSD sky130_fd_pr__nfet_01v8 L=0.18 W=7 AD=3.5 AS=3.535 PD=15 PS=8.01 NRD=3.42 NRS=3.336 m=1 sa=90013.4 sb=90019.9 a=1.26 p=14.36
XM88 VSSD 11 VCCD VSSD sky130_fd_pr__nfet_01v8 L=0.18 W=7 AD=3.5 AS=3.535 PD=15 PS=8.01 NRD=3.42 NRS=3.336 m=1 sa=90013.4 sb=90019.9 a=1.26 p=14.36
XM89 VSSD 11 VCCD VSSD sky130_fd_pr__nfet_01v8 L=0.18 W=5 AD=2.5 AS=2.525 PD=11 PS=6.01 NRD=4.8 NRS=4.68 m=1 sa=90013.4 sb=90019.9 a=0.9 p=10.36
XM90 VSSIO 7 VCCD VSSIO sky130_fd_pr__nfet_01v8 L=0.18 W=7 AD=3.5 AS=3.535 PD=15 PS=8.01 NRD=3.42 NRS=3.336 m=1 sa=90010.6 sb=90019.9 a=1.26 p=14.36
XM91 VSSIO 7 VCCD VSSIO sky130_fd_pr__nfet_01v8 L=0.18 W=7 AD=3.5 AS=3.535 PD=15 PS=8.01 NRD=3.42 NRS=3.336 m=1 sa=90013.4 sb=90019.9 a=1.26 p=14.36
XM92 VSSIO 7 VCCD VSSIO sky130_fd_pr__nfet_01v8 L=0.18 W=5 AD=5.625 AS=2.925 PD=12.25 PS=6.17 NRD=19.788 NRS=6.6 m=1 sa=90003.1 sb=90019.9 a=0.9 p=10.36
XM93 VSSIO 7 VCCD VSSIO sky130_fd_pr__nfet_01v8 L=0.18 W=7 AD=7.875 AS=4.095 PD=16.25 PS=8.17 NRD=14.136 NRS=4.704 m=1 sa=90003.1 sb=90019.9 a=1.26 p=14.36
XM94 VSSIO 7 VCCD VSSIO sky130_fd_pr__nfet_01v8 L=0.18 W=7 AD=7.875 AS=4.095 PD=16.25 PS=8.17 NRD=14.136 NRS=4.704 m=1 sa=90011.4 sb=90019.9 a=1.26 p=14.36
XM95 VSSIO 7 VCCD VSSIO sky130_fd_pr__nfet_01v8 L=0.18 W=7 AD=7.875 AS=4.095 PD=16.25 PS=8.17 NRD=14.136 NRS=4.704 m=1 sa=90011.4 sb=90019.9 a=1.26 p=14.36
XM96 VSSIO 7 VCCD VSSIO sky130_fd_pr__nfet_01v8 L=0.18 W=7 AD=7.875 AS=4.095 PD=16.25 PS=8.17 NRD=14.136 NRS=4.704 m=1 sa=90011.4 sb=90019.9 a=1.26 p=14.36
XM97 VCCD 11 VSSD VSSD sky130_fd_pr__nfet_01v8 L=0.18 W=7 AD=3.535 AS=3.5 PD=8.01 PS=15 NRD=3.336 NRS=3.42 m=1 sa=90015 sb=90019.9 a=1.26 p=14.36
XM98 VCCD 11 VSSD VSSD sky130_fd_pr__nfet_01v8 L=0.18 W=7 AD=3.535 AS=3.5 PD=8.01 PS=15 NRD=3.336 NRS=3.42 m=1 sa=90015 sb=90019.9 a=1.26 p=14.36
XM99 VCCD 11 VSSD VSSD sky130_fd_pr__nfet_01v8 L=0.18 W=7 AD=3.535 AS=3.5 PD=8.01 PS=15 NRD=3.336 NRS=3.42 m=1 sa=90015 sb=90019.9 a=1.26 p=14.36
XM100 VCCD 11 VSSD VSSD sky130_fd_pr__nfet_01v8 L=0.18 W=7 AD=3.535 AS=3.5 PD=8.01 PS=15 NRD=3.336 NRS=3.42 m=1 sa=90015 sb=90019.9 a=1.26 p=14.36
XM101 VCCD 11 VSSD VSSD sky130_fd_pr__nfet_01v8 L=0.18 W=5 AD=2.525 AS=2.5 PD=6.01 PS=11 NRD=4.68 NRS=4.8 m=1 sa=90015 sb=90019.9 a=0.9 p=10.36
XM102 VCCD 7 VSSIO VSSIO sky130_fd_pr__nfet_01v8 L=0.18 W=7 AD=3.535 AS=3.5 PD=8.01 PS=15 NRD=3.336 NRS=3.42 m=1 sa=90012.2 sb=90019.9 a=1.26 p=14.36
XM103 VCCD 7 VSSIO VSSIO sky130_fd_pr__nfet_01v8 L=0.18 W=7 AD=3.535 AS=3.5 PD=8.01 PS=15 NRD=3.336 NRS=3.42 m=1 sa=90015 sb=90019.9 a=1.26 p=14.36
XM104 VSSD 11 VCCD VSSD sky130_fd_pr__nfet_01v8 L=0.18 W=7 AD=3.5 AS=3.535 PD=15 PS=8.01 NRD=3.42 NRS=3.336 m=1 sa=90016.2 sb=90019.9 a=1.26 p=14.36
XM105 VSSD 11 VCCD VSSD sky130_fd_pr__nfet_01v8 L=0.18 W=7 AD=3.5 AS=3.535 PD=15 PS=8.01 NRD=3.42 NRS=3.336 m=1 sa=90016.2 sb=90019.9 a=1.26 p=14.36
XM106 VSSD 11 VCCD VSSD sky130_fd_pr__nfet_01v8 L=0.18 W=7 AD=3.5 AS=3.535 PD=15 PS=8.01 NRD=3.42 NRS=3.336 m=1 sa=90016.2 sb=90019.9 a=1.26 p=14.36
XM107 VSSD 11 VCCD VSSD sky130_fd_pr__nfet_01v8 L=0.18 W=7 AD=3.5 AS=3.535 PD=15 PS=8.01 NRD=3.42 NRS=3.336 m=1 sa=90016.2 sb=90019.9 a=1.26 p=14.36
XM108 VSSD 11 VCCD VSSD sky130_fd_pr__nfet_01v8 L=0.18 W=5 AD=2.5 AS=2.525 PD=11 PS=6.01 NRD=4.8 NRS=4.68 m=1 sa=90016.1 sb=90019.9 a=0.9 p=10.36
XM109 VSSIO 7 VCCD VSSIO sky130_fd_pr__nfet_01v8 L=0.18 W=7 AD=3.5 AS=3.535 PD=15 PS=8.01 NRD=3.42 NRS=3.336 m=1 sa=90013.4 sb=90019.9 a=1.26 p=14.36
XM110 VSSIO 7 VCCD VSSIO sky130_fd_pr__nfet_01v8 L=0.18 W=7 AD=3.5 AS=3.535 PD=15 PS=8.01 NRD=3.42 NRS=3.336 m=1 sa=90016.2 sb=90019.9 a=1.26 p=14.36
XM111 VCCD 7 VSSIO VSSIO sky130_fd_pr__nfet_01v8 L=0.18 W=5 AD=2.925 AS=5.625 PD=6.17 PS=12.25 NRD=6.6 NRS=19.788 m=1 sa=90005.9 sb=90019.9 a=0.9 p=10.36
XM112 VCCD 7 VSSIO VSSIO sky130_fd_pr__nfet_01v8 L=0.18 W=7 AD=4.095 AS=7.875 PD=8.17 PS=16.25 NRD=4.704 NRS=14.136 m=1 sa=90005.9 sb=90019.9 a=1.26 p=14.36
XM113 VCCD 7 VSSIO VSSIO sky130_fd_pr__nfet_01v8 L=0.18 W=7 AD=4.095 AS=7.875 PD=8.17 PS=16.25 NRD=4.704 NRS=14.136 m=1 sa=90014.3 sb=90019.9 a=1.26 p=14.36
XM114 VCCD 7 VSSIO VSSIO sky130_fd_pr__nfet_01v8 L=0.18 W=7 AD=4.095 AS=7.875 PD=8.17 PS=16.25 NRD=4.704 NRS=14.136 m=1 sa=90014.3 sb=90019.9 a=1.26 p=14.36
XM115 VCCD 7 VSSIO VSSIO sky130_fd_pr__nfet_01v8 L=0.18 W=7 AD=4.095 AS=7.875 PD=8.17 PS=16.25 NRD=4.704 NRS=14.136 m=1 sa=90014.3 sb=90019.9 a=1.26 p=14.36
XM116 VCCD 11 VSSD VSSD sky130_fd_pr__nfet_01v8 L=0.18 W=7 AD=3.535 AS=3.5 PD=8.01 PS=15 NRD=3.336 NRS=3.42 m=1 sa=90017.7 sb=90019.9 a=1.26 p=14.36
XM117 VCCD 11 VSSD VSSD sky130_fd_pr__nfet_01v8 L=0.18 W=7 AD=3.535 AS=3.5 PD=8.01 PS=15 NRD=3.336 NRS=3.42 m=1 sa=90017.7 sb=90019.9 a=1.26 p=14.36
XM118 VCCD 11 VSSD VSSD sky130_fd_pr__nfet_01v8 L=0.18 W=7 AD=3.535 AS=3.5 PD=8.01 PS=15 NRD=3.336 NRS=3.42 m=1 sa=90017.7 sb=90019.9 a=1.26 p=14.36
XM119 VCCD 11 VSSD VSSD sky130_fd_pr__nfet_01v8 L=0.18 W=7 AD=3.535 AS=3.5 PD=8.01 PS=15 NRD=3.336 NRS=3.42 m=1 sa=90017.7 sb=90019.9 a=1.26 p=14.36
XM120 VCCD 11 VSSD VSSD sky130_fd_pr__nfet_01v8 L=0.18 W=5 AD=2.525 AS=2.5 PD=6.01 PS=11 NRD=4.68 NRS=4.8 m=1 sa=90017.7 sb=90019.9 a=0.9 p=10.36
XM121 VCCD 7 VSSIO VSSIO sky130_fd_pr__nfet_01v8 L=0.18 W=7 AD=3.535 AS=3.5 PD=8.01 PS=15 NRD=3.336 NRS=3.42 m=1 sa=90015 sb=90019.9 a=1.26 p=14.36
XM122 VCCD 7 VSSIO VSSIO sky130_fd_pr__nfet_01v8 L=0.18 W=7 AD=3.535 AS=3.5 PD=8.01 PS=15 NRD=3.336 NRS=3.42 m=1 sa=90017.7 sb=90019.9 a=1.26 p=14.36
XM123 VSSIO 7 VCCD VSSIO sky130_fd_pr__nfet_01v8 L=0.18 W=5 AD=5.625 AS=2.925 PD=12.25 PS=6.17 NRD=19.788 NRS=6.6 m=1 sa=90007.3 sb=90019.9 a=0.9 p=10.36
XM124 VSSIO 7 VCCD VSSIO sky130_fd_pr__nfet_01v8 L=0.18 W=7 AD=7.875 AS=4.095 PD=16.25 PS=8.17 NRD=14.136 NRS=4.704 m=1 sa=90007.3 sb=90019.9 a=1.26 p=14.36
XM125 VSSIO 7 VCCD VSSIO sky130_fd_pr__nfet_01v8 L=0.18 W=7 AD=7.875 AS=4.095 PD=16.25 PS=8.17 NRD=14.136 NRS=4.704 m=1 sa=90015.6 sb=90019.9 a=1.26 p=14.36
XM126 VSSIO 7 VCCD VSSIO sky130_fd_pr__nfet_01v8 L=0.18 W=7 AD=7.875 AS=4.095 PD=16.25 PS=8.17 NRD=14.136 NRS=4.704 m=1 sa=90015.6 sb=90019.9 a=1.26 p=14.36
XM127 VSSIO 7 VCCD VSSIO sky130_fd_pr__nfet_01v8 L=0.18 W=7 AD=7.875 AS=4.095 PD=16.25 PS=8.17 NRD=14.136 NRS=4.704 m=1 sa=90015.6 sb=90019.9 a=1.26 p=14.36
XM128 VSSD 11 VCCD VSSD sky130_fd_pr__nfet_01v8 L=0.18 W=7 AD=3.5 AS=3.535 PD=15 PS=8.01 NRD=3.42 NRS=3.336 m=1 sa=90018.9 sb=90019.9 a=1.26 p=14.36
XM129 VSSD 11 VCCD VSSD sky130_fd_pr__nfet_01v8 L=0.18 W=7 AD=3.5 AS=3.535 PD=15 PS=8.01 NRD=3.42 NRS=3.336 m=1 sa=90018.9 sb=90019.9 a=1.26 p=14.36
XM130 VSSD 11 VCCD VSSD sky130_fd_pr__nfet_01v8 L=0.18 W=7 AD=3.5 AS=3.535 PD=15 PS=8.01 NRD=3.42 NRS=3.336 m=1 sa=90018.9 sb=90019.9 a=1.26 p=14.36
XM131 VSSD 11 VCCD VSSD sky130_fd_pr__nfet_01v8 L=0.18 W=7 AD=3.5 AS=3.535 PD=15 PS=8.01 NRD=3.42 NRS=3.336 m=1 sa=90018.9 sb=90019.9 a=1.26 p=14.36
XM132 VSSD 11 VCCD VSSD sky130_fd_pr__nfet_01v8 L=0.18 W=5 AD=2.5 AS=2.525 PD=11 PS=6.01 NRD=4.8 NRS=4.68 m=1 sa=90018.9 sb=90019.9 a=0.9 p=10.36
XM133 VSSIO 7 VCCD VSSIO sky130_fd_pr__nfet_01v8 L=0.18 W=7 AD=3.5 AS=3.535 PD=15 PS=8.01 NRD=3.42 NRS=3.336 m=1 sa=90016.2 sb=90019.9 a=1.26 p=14.36
XM134 VSSIO 7 VCCD VSSIO sky130_fd_pr__nfet_01v8 L=0.18 W=7 AD=3.5 AS=3.535 PD=15 PS=8.01 NRD=3.42 NRS=3.336 m=1 sa=90018.9 sb=90019.9 a=1.26 p=14.36
XM135 VSSD 9 VSSD VSSD sky130_fd_pr__nfet_01v8 L=8 W=5 AD=0.7 AS=0.7 PD=5.28 PS=5.28 NRD=0 NRS=0 m=1 sa=4.00001e+06 sb=4.00002e+06 a=40 p=26
XM136 VSSD 9 VSSD VSSD sky130_fd_pr__nfet_01v8 L=8 W=7 AD=0.98 AS=2.3975 PD=7.28 PS=7.685 NRD=0 NRS=0 m=1 sa=4e+06 sb=4.00002e+06 a=56 p=30
XM137 VSSD 9 VSSD VSSD sky130_fd_pr__nfet_01v8 L=8 W=7 AD=0.98 AS=2.3975 PD=7.28 PS=7.685 NRD=0 NRS=0 m=1 sa=4e+06 sb=4.00002e+06 a=56 p=30
XM138 VSSIO 5 VSSIO VSSIO sky130_fd_pr__nfet_01v8 L=8 W=7 AD=0.98 AS=2.3975 PD=7.28 PS=7.685 NRD=0 NRS=0 m=1 sa=4e+06 sb=4.00002e+06 a=56 p=30
XM139 VSSIO 5 VSSIO VSSIO sky130_fd_pr__nfet_01v8 L=8 W=7 AD=0.98 AS=2.3975 PD=7.28 PS=7.685 NRD=0 NRS=0 m=1 sa=4e+06 sb=4.00002e+06 a=56 p=30
XM140 VSSIO 5 VSSIO VSSIO sky130_fd_pr__nfet_01v8 L=8 W=7 AD=0.98 AS=2.3975 PD=7.28 PS=7.685 NRD=0 NRS=0 m=1 sa=4e+06 sb=4.00002e+06 a=56 p=30
XM141 VCCD 11 VSSD VSSD sky130_fd_pr__nfet_01v8 L=0.18 W=7 AD=3.535 AS=3.5 PD=8.01 PS=15 NRD=3.336 NRS=3.42 m=1 sa=90019.9 sb=90019.9 a=1.26 p=14.36
XM142 VCCD 11 VSSD VSSD sky130_fd_pr__nfet_01v8 L=0.18 W=7 AD=3.535 AS=3.5 PD=8.01 PS=15 NRD=3.336 NRS=3.42 m=1 sa=90019.9 sb=90019.9 a=1.26 p=14.36
XM143 VCCD 11 VSSD VSSD sky130_fd_pr__nfet_01v8 L=0.18 W=7 AD=3.535 AS=3.5 PD=8.01 PS=15 NRD=3.336 NRS=3.42 m=1 sa=90019.9 sb=90019.9 a=1.26 p=14.36
XM144 VCCD 11 VSSD VSSD sky130_fd_pr__nfet_01v8 L=0.18 W=7 AD=3.535 AS=3.5 PD=8.01 PS=15 NRD=3.336 NRS=3.42 m=1 sa=90019.9 sb=90019.9 a=1.26 p=14.36
XM145 VCCD 11 VSSD VSSD sky130_fd_pr__nfet_01v8 L=0.18 W=5 AD=2.525 AS=2.5 PD=6.01 PS=11 NRD=4.68 NRS=4.8 m=1 sa=90019.9 sb=90019.9 a=0.9 p=10.36
XM146 VCCD 7 VSSIO VSSIO sky130_fd_pr__nfet_01v8 L=0.18 W=7 AD=3.535 AS=3.5 PD=8.01 PS=15 NRD=3.336 NRS=3.42 m=1 sa=90017.7 sb=90019.9 a=1.26 p=14.36
XM147 VCCD 7 VSSIO VSSIO sky130_fd_pr__nfet_01v8 L=0.18 W=7 AD=3.535 AS=3.5 PD=8.01 PS=15 NRD=3.336 NRS=3.42 m=1 sa=90019.9 sb=90019.9 a=1.26 p=14.36
XM148 VCCD 7 VSSIO VSSIO sky130_fd_pr__nfet_01v8 L=0.18 W=5 AD=2.925 AS=5.625 PD=6.17 PS=12.25 NRD=6.6 NRS=19.788 m=1 sa=90010.1 sb=90019.9 a=0.9 p=10.36
XM149 VCCD 7 VSSIO VSSIO sky130_fd_pr__nfet_01v8 L=0.18 W=7 AD=4.095 AS=7.875 PD=8.17 PS=16.25 NRD=4.704 NRS=14.136 m=1 sa=90010.1 sb=90019.9 a=1.26 p=14.36
XM150 VCCD 7 VSSIO VSSIO sky130_fd_pr__nfet_01v8 L=0.18 W=7 AD=4.095 AS=7.875 PD=8.17 PS=16.25 NRD=4.704 NRS=14.136 m=1 sa=90018.5 sb=90019.9 a=1.26 p=14.36
XM151 VCCD 7 VSSIO VSSIO sky130_fd_pr__nfet_01v8 L=0.18 W=7 AD=4.095 AS=7.875 PD=8.17 PS=16.25 NRD=4.704 NRS=14.136 m=1 sa=90018.5 sb=90019.9 a=1.26 p=14.36
XM152 VCCD 7 VSSIO VSSIO sky130_fd_pr__nfet_01v8 L=0.18 W=7 AD=4.095 AS=7.875 PD=8.17 PS=16.25 NRD=4.704 NRS=14.136 m=1 sa=90018.5 sb=90019.9 a=1.26 p=14.36
XM153 VSSD 11 VCCD VSSD sky130_fd_pr__nfet_01v8 L=0.18 W=7 AD=3.5 AS=3.535 PD=15 PS=8.01 NRD=3.42 NRS=3.336 m=1 sa=90019.9 sb=90019.9 a=1.26 p=14.36
XM154 VSSD 11 VCCD VSSD sky130_fd_pr__nfet_01v8 L=0.18 W=7 AD=3.5 AS=3.535 PD=15 PS=8.01 NRD=3.42 NRS=3.336 m=1 sa=90019.9 sb=90019.9 a=1.26 p=14.36
XM155 VSSD 11 VCCD VSSD sky130_fd_pr__nfet_01v8 L=0.18 W=7 AD=3.5 AS=3.535 PD=15 PS=8.01 NRD=3.42 NRS=3.336 m=1 sa=90019.9 sb=90019.9 a=1.26 p=14.36
XM156 VSSD 11 VCCD VSSD sky130_fd_pr__nfet_01v8 L=0.18 W=7 AD=3.5 AS=3.535 PD=15 PS=8.01 NRD=3.42 NRS=3.336 m=1 sa=90019.9 sb=90019.9 a=1.26 p=14.36
XM157 VSSD 11 VCCD VSSD sky130_fd_pr__nfet_01v8 L=0.18 W=5 AD=2.5 AS=2.525 PD=11 PS=6.01 NRD=4.8 NRS=4.68 m=1 sa=90019.9 sb=90019.9 a=0.9 p=10.36
XM158 VSSIO 7 VCCD VSSIO sky130_fd_pr__nfet_01v8 L=0.18 W=7 AD=3.5 AS=3.535 PD=15 PS=8.01 NRD=3.42 NRS=3.336 m=1 sa=90018.9 sb=90019.9 a=1.26 p=14.36
XM159 VSSIO 7 VCCD VSSIO sky130_fd_pr__nfet_01v8 L=0.18 W=7 AD=3.5 AS=3.535 PD=15 PS=8.01 NRD=3.42 NRS=3.336 m=1 sa=90019.9 sb=90019.9 a=1.26 p=14.36
XM160 VSSIO 7 VCCD VSSIO sky130_fd_pr__nfet_01v8 L=0.18 W=5 AD=5.625 AS=2.925 PD=12.25 PS=6.17 NRD=19.788 NRS=6.6 m=1 sa=90011.4 sb=90019.9 a=0.9 p=10.36
XM161 VSSIO 7 VCCD VSSIO sky130_fd_pr__nfet_01v8 L=0.18 W=7 AD=7.875 AS=4.095 PD=16.25 PS=8.17 NRD=14.136 NRS=4.704 m=1 sa=90011.4 sb=90019.9 a=1.26 p=14.36
XM162 VSSIO 7 VCCD VSSIO sky130_fd_pr__nfet_01v8 L=0.18 W=7 AD=7.875 AS=4.095 PD=16.25 PS=8.17 NRD=14.136 NRS=4.704 m=1 sa=90019.8 sb=90019.9 a=1.26 p=14.36
XM163 VSSIO 7 VCCD VSSIO sky130_fd_pr__nfet_01v8 L=0.18 W=7 AD=7.875 AS=4.095 PD=16.25 PS=8.17 NRD=14.136 NRS=4.704 m=1 sa=90019.8 sb=90019.9 a=1.26 p=14.36
XM164 VSSIO 7 VCCD VSSIO sky130_fd_pr__nfet_01v8 L=0.18 W=7 AD=7.875 AS=4.095 PD=16.25 PS=8.17 NRD=14.136 NRS=4.704 m=1 sa=90019.8 sb=90019.9 a=1.26 p=14.36
XM165 VCCD 11 VSSD VSSD sky130_fd_pr__nfet_01v8 L=0.18 W=7 AD=3.535 AS=3.5 PD=8.01 PS=15 NRD=3.336 NRS=3.42 m=1 sa=90019.9 sb=90019.9 a=1.26 p=14.36
XM166 VCCD 11 VSSD VSSD sky130_fd_pr__nfet_01v8 L=0.18 W=7 AD=3.535 AS=3.5 PD=8.01 PS=15 NRD=3.336 NRS=3.42 m=1 sa=90019.9 sb=90019.9 a=1.26 p=14.36
XM167 VCCD 11 VSSD VSSD sky130_fd_pr__nfet_01v8 L=0.18 W=7 AD=3.535 AS=3.5 PD=8.01 PS=15 NRD=3.336 NRS=3.42 m=1 sa=90019.9 sb=90019.9 a=1.26 p=14.36
XM168 VCCD 11 VSSD VSSD sky130_fd_pr__nfet_01v8 L=0.18 W=7 AD=3.535 AS=3.5 PD=8.01 PS=15 NRD=3.336 NRS=3.42 m=1 sa=90019.9 sb=90019.9 a=1.26 p=14.36
XM169 VCCD 11 VSSD VSSD sky130_fd_pr__nfet_01v8 L=0.18 W=5 AD=2.525 AS=2.5 PD=6.01 PS=11 NRD=4.68 NRS=4.8 m=1 sa=90019.9 sb=90019.9 a=0.9 p=10.36
XM170 VCCD 7 VSSIO VSSIO sky130_fd_pr__nfet_01v8 L=0.18 W=7 AD=3.535 AS=3.5 PD=8.01 PS=15 NRD=3.336 NRS=3.42 m=1 sa=90019.9 sb=90019.9 a=1.26 p=14.36
XM171 VCCD 7 VSSIO VSSIO sky130_fd_pr__nfet_01v8 L=0.18 W=7 AD=3.535 AS=3.5 PD=8.01 PS=15 NRD=3.336 NRS=3.42 m=1 sa=90019.9 sb=90019.9 a=1.26 p=14.36
XM172 VSSD 11 VCCD VSSD sky130_fd_pr__nfet_01v8 L=0.18 W=7 AD=3.5 AS=3.535 PD=15 PS=8.01 NRD=3.42 NRS=3.336 m=1 sa=90019.9 sb=90019.9 a=1.26 p=14.36
XM173 VSSD 11 VCCD VSSD sky130_fd_pr__nfet_01v8 L=0.18 W=7 AD=3.5 AS=3.535 PD=15 PS=8.01 NRD=3.42 NRS=3.336 m=1 sa=90019.9 sb=90019.9 a=1.26 p=14.36
XM174 VSSD 11 VCCD VSSD sky130_fd_pr__nfet_01v8 L=0.18 W=7 AD=3.5 AS=3.535 PD=15 PS=8.01 NRD=3.42 NRS=3.336 m=1 sa=90019.9 sb=90019.9 a=1.26 p=14.36
XM175 VSSD 11 VCCD VSSD sky130_fd_pr__nfet_01v8 L=0.18 W=7 AD=3.5 AS=3.535 PD=15 PS=8.01 NRD=3.42 NRS=3.336 m=1 sa=90019.9 sb=90019.9 a=1.26 p=14.36
XM176 VSSD 11 VCCD VSSD sky130_fd_pr__nfet_01v8 L=0.18 W=5 AD=2.5 AS=2.525 PD=11 PS=6.01 NRD=4.8 NRS=4.68 m=1 sa=90019.9 sb=90019.9 a=0.9 p=10.36
XM177 VSSIO 7 VCCD VSSIO sky130_fd_pr__nfet_01v8 L=0.18 W=7 AD=3.5 AS=3.535 PD=15 PS=8.01 NRD=3.42 NRS=3.336 m=1 sa=90019.9 sb=90019.9 a=1.26 p=14.36
XM178 VSSIO 7 VCCD VSSIO sky130_fd_pr__nfet_01v8 L=0.18 W=7 AD=3.5 AS=3.535 PD=15 PS=8.01 NRD=3.42 NRS=3.336 m=1 sa=90019.9 sb=90019.9 a=1.26 p=14.36
XM179 VCCD 7 VSSIO VSSIO sky130_fd_pr__nfet_01v8 L=0.18 W=5 AD=2.925 AS=5.625 PD=6.17 PS=12.25 NRD=6.6 NRS=19.788 m=1 sa=90014.3 sb=90019.9 a=0.9 p=10.36
XM180 VCCD 7 VSSIO VSSIO sky130_fd_pr__nfet_01v8 L=0.18 W=7 AD=4.095 AS=7.875 PD=8.17 PS=16.25 NRD=4.704 NRS=14.136 m=1 sa=90014.3 sb=90019.9 a=1.26 p=14.36
XM181 VCCD 7 VSSIO VSSIO sky130_fd_pr__nfet_01v8 L=0.18 W=7 AD=4.095 AS=7.875 PD=8.17 PS=16.25 NRD=4.704 NRS=14.136 m=1 sa=90019.9 sb=90019.9 a=1.26 p=14.36