*********************************************************
* Copyright (c) 2017 by Cypress Semiconductor
* Cypress Confidential Information
*********************************************************

*.BIPOLAR
*.RESI=1
*.RESVAL
*.CAPVAL
*.DIOPERI
*.DIOAREA
*.EQUATION
*.LDD
*.SCALE MICRON
*.MEGA
*.PARAM
*.OPTION SCALE=1E-6

************************************************************************
* auCdl Netlist:
*
* Library Name: s8iom0s8
* Top Cell Name: sky130_fd_io__top_gpiov2
* View Name: schematic
* Netlisted on: ... XX XX:XX:XX 2...
************************************************************************




************************************************************************
* Library Name: s8_esd
* Cell Name: s8_esd_res75only_small
* View Name: schematic
************************************************************************

.SUBCKT s8_esd_res75only_small pad rout
*.PININFO pad:B rout:B
RI175 pad rout sky130_fd_pr__res_generic_po l=3.15 m=1 w=2
.ENDS

************************************************************************
* Library Name: s8iom0s8
* Cell Name: sky130_fd_io__gpiov2_amux_switch
* View Name: schematic
************************************************************************

.SUBCKT sky130_fd_io__gpiov2_amux_switch amuxbus_hv ng_amx_vpmp_h ng_pad_vpmp_h nmid_vccd pad_hv_n0
+ pad_hv_n1 pad_hv_n2 pad_hv_n3 pad_hv_p0 pad_hv_p1 pd_h_vdda pd_h_vddio pg_amx_vdda_h_n
+ pg_pad_vddioq_h_n vdda vddio vssa vssd
*.PININFO ng_amx_vpmp_h:I ng_pad_vpmp_h:I nmid_vccd:I pd_h_vdda:I pd_h_vddio:I
*.PININFO pg_amx_vdda_h_n:I pg_pad_vddioq_h_n:I vdda:I vddio:I vssa:I vssd:I
*.PININFO amuxbus_hv:B pad_hv_n0:B pad_hv_n1:B pad_hv_n2:B pad_hv_n3:B
*.PININFO pad_hv_p0:B pad_hv_p1:B
XI70 mid vdda condiode
XI71 mid1 vdda condiode
XI72 vssa vdda condiode
XI12 vssa net77 / s8_esd_res75only_small
XI56 vssa net79 / s8_esd_res75only_small
XMI45 mid1 ng_pad_vpmp_h pad_hv_n2 mid1 sky130_fd_pr__nfet_g5v0d10v5 AD=0 AS=0 PD=0 PS=0
+ a=(7.00)*(0.50) l=0.50 m=4*1 p=2*(7.00)+2*(0.50) sa=265e-3 sb=265e-3
+ sd=280e-3 w=7.00
XMI24 pad_hv_n0 ng_pad_vpmp_h mid mid sky130_fd_pr__nfet_g5v0d10v5 AD=0 AS=0 PD=0 PS=0
+ a=(7.00)*(0.50) l=0.50 m=3*1 p=2*(7.00)+2*(0.50) sa=265e-3 sb=265e-3
+ sd=280e-3 w=7.00
XMI35 mid ng_pad_vpmp_h pad_hv_n1 mid sky130_fd_pr__nfet_g5v0d10v5 AD=0 AS=0 PD=0 PS=0
+ a=(7.00)*(0.50) l=0.50 m=4*1 p=2*(7.00)+2*(0.50) sa=265e-3 sb=265e-3
+ sd=280e-3 w=7.00
XMI46 pad_hv_n3 ng_pad_vpmp_h mid1 mid1 sky130_fd_pr__nfet_g5v0d10v5 AD=0 AS=0 PD=0 PS=0
+ a=(7.00)*(0.50) l=0.50 m=4*1 p=2*(7.00)+2*(0.50) sa=265e-3 sb=265e-3
+ sd=280e-3 w=7.00
XMI1 mid nmid_vccd net77 vssa sky130_fd_pr__nfet_g5v0d10v5 AD=0 AS=0 PD=0 PS=0
+ a=(3.00)*(0.50) l=0.50 m=1*1 p=2*(3.00)+2*(0.50) sa=265e-3 sb=265e-3
+ sd=280e-3 w=3.00
XMI77<1> mid pd_h_vddio vssa vssa sky130_fd_pr__nfet_g5v0d10v5 AD=0 AS=0 PD=0 PS=0
+ a=(0.42)*(0.50) l=0.50 m=1*1 p=2*(0.42)+2*(0.50) sa=265e-3 sb=265e-3
+ sd=280e-3 w=0.42
XMI77<0> mid1 pd_h_vddio vssa vssa sky130_fd_pr__nfet_g5v0d10v5 AD=0 AS=0 PD=0 PS=0
+ a=(0.42)*(0.50) l=0.50 m=1*1 p=2*(0.42)+2*(0.50) sa=265e-3 sb=265e-3
+ sd=280e-3 w=0.42
XMI78<1> mid pd_h_vdda vssa vssa sky130_fd_pr__nfet_g5v0d10v5 AD=0 AS=0 PD=0 PS=0
+ a=(0.42)*(0.50) l=0.50 m=1*1 p=2*(0.42)+2*(0.50) sa=265e-3 sb=265e-3
+ sd=280e-3 w=0.42
XMI78<0> mid1 pd_h_vdda vssa vssa sky130_fd_pr__nfet_g5v0d10v5 AD=0 AS=0 PD=0 PS=0
+ a=(0.42)*(0.50) l=0.50 m=1*1 p=2*(0.42)+2*(0.50) sa=265e-3 sb=265e-3
+ sd=280e-3 w=0.42
XMI47 mid1 ng_amx_vpmp_h amuxbus_hv mid1 sky130_fd_pr__nfet_g5v0d10v5 AD=0 AS=0 PD=0 PS=0
+ a=(7.00)*(0.50) l=0.50 m=7*1 p=2*(7.00)+2*(0.50) sa=265e-3 sb=265e-3
+ sd=280e-3 w=7.00
XMI57 mid1 nmid_vccd net79 vssa sky130_fd_pr__nfet_g5v0d10v5 AD=0 AS=0 PD=0 PS=0
+ a=(3.00)*(0.50) l=0.50 m=1*1 p=2*(3.00)+2*(0.50) sa=265e-3 sb=265e-3
+ sd=280e-3 w=3.00
XMI28 mid ng_amx_vpmp_h amuxbus_hv mid sky130_fd_pr__nfet_g5v0d10v5 AD=0 AS=0 PD=0 PS=0
+ a=(7.00)*(0.50) l=0.50 m=7*1 p=2*(7.00)+2*(0.50) sa=265e-3 sb=265e-3
+ sd=280e-3 w=7.00
XMI26 mid pg_amx_vdda_h_n amuxbus_hv vdda sky130_fd_pr__pfet_g5v0d10v5 AD=0 AS=0 PD=0 PS=0
+ a=(7.00)*(0.50) l=0.50 m=5*1 p=2*(7.00)+2*(0.50) sa=265e-3 sb=265e-3
+ sd=280e-3 w=7.00
XMI36 mid pg_pad_vddioq_h_n pad_hv_p0 vddio sky130_fd_pr__pfet_g5v0d10v5 AD=0 AS=0 PD=0 PS=0
+ a=(7.00)*(0.50) l=0.50 m=3*1 p=2*(7.00)+2*(0.50) sa=265e-3 sb=265e-3
+ sd=280e-3 w=7.00
XMI22 mid pg_pad_vddioq_h_n pad_hv_p1 vddio sky130_fd_pr__pfet_g5v0d10v5 AD=0 AS=0 PD=0 PS=0
+ a=(7.00)*(0.50) l=0.50 m=3*1 p=2*(7.00)+2*(0.50) sa=265e-3 sb=265e-3
+ sd=280e-3 w=7.00
.ENDS

************************************************************************
* Library Name: s8iom0s8
* Cell Name: sky130_fd_io__hvsbt_inv_x1
* View Name: schematic
************************************************************************

.SUBCKT sky130_fd_io__hvsbt_inv_x1 in out vgnd vpwr
*.PININFO in:I vgnd:I vpwr:I out:O
XMI1 out in vpwr vpwr sky130_fd_pr__pfet_g5v0d10v5 AD=0 AS=0 PD=0 PS=0
+ a=(1.00)*(0.60) l=0.60 m=2*1 p=2*(1.00)+2*(0.60) sa=265e-3 sb=265e-3
+ sd=280e-3 w=1.00
XMI2 out in vgnd vgnd sky130_fd_pr__nfet_g5v0d10v5 AD=0 AS=0 PD=0 PS=0
+ a=(0.70)*(0.60) l=0.60 m=1*1 p=2*(0.70)+2*(0.60) sa=265e-3 sb=265e-3
+ sd=280e-3 w=0.70
.ENDS

************************************************************************
* Library Name: s8iom0s8
* Cell Name: sky130_fd_io__gpiov2_amx_pucsd_inv
* View Name: schematic
************************************************************************

.SUBCKT sky130_fd_io__gpiov2_amx_pucsd_inv A Y vda vssa
*.PININFO A:I vda:I vssa:I Y:O
XMI75 Y A vssa vssa sky130_fd_pr__nfet_g5v0d10v5 AD=0 AS=0 PD=0 PS=0
+ a=(0.42)*(0.60) l=0.60 m=7*1 p=2*(0.42)+2*(0.60) sa=265e-3 sb=265e-3
+ sd=280e-3 w=0.42
XMI74 Y A vda vda sky130_fd_pr__pfet_g5v0d10v5 AD=0 AS=0 PD=0 PS=0
+ a=(1.00)*(0.60) l=0.60 m=7*1 p=2*(1.00)+2*(0.60) sa=265e-3 sb=265e-3
+ sd=280e-3 w=1.00
.ENDS

************************************************************************
* Library Name: s8iom0s8
* Cell Name: sky130_fd_io__gpiov2_amux_drvr_lshv2hv
* View Name: schematic
************************************************************************

.SUBCKT sky130_fd_io__gpiov2_amux_drvr_lshv2hv in in_b out_h_n rst_h rst_h_n vgnd vpwr_hv
*.PININFO in:I in_b:I rst_h:I rst_h_n:I vgnd:I vpwr_hv:I out_h_n:O
XMI1 fbk_n fbk vpwr_hv vpwr_hv sky130_fd_pr__pfet_g5v0d10v5 AD=0 AS=0 PD=0 PS=0
+ a=(0.42)*(1.00) l=1.00 m=1*1 p=2*(0.42)+2*(1.00) sa=265e-3 sb=265e-3
+ sd=280e-3 w=0.42
XMI2 fbk fbk_n vpwr_hv vpwr_hv sky130_fd_pr__pfet_g5v0d10v5 AD=0 AS=0 PD=0 PS=0
+ a=(0.42)*(1.00) l=1.00 m=1*1 p=2*(0.42)+2*(1.00) sa=265e-3 sb=265e-3
+ sd=280e-3 w=0.42
XMI14 out_h_n fbk vpwr_hv vpwr_hv sky130_fd_pr__pfet_g5v0d10v5 AD=0 AS=0 PD=0 PS=0
+ a=(1.00)*(0.50) l=0.50 m=2*1 p=2*(1.00)+2*(0.50) sa=265e-3 sb=265e-3
+ sd=280e-3 w=1.00
XMI64 net52 rst_h_n vgnd vgnd sky130_fd_pr__nfet_g5v0d10v5 AD=0 AS=0 PD=0 PS=0
+ a=(3.00)*(0.50) l=0.50 m=1*1 p=2*(3.00)+2*(0.50) sa=265e-3 sb=265e-3
+ sd=280e-3 w=3.00
XMI7 fbk in_b net52 vgnd sky130_fd_pr__nfet_g5v0d10v5 AD=0 AS=0 PD=0 PS=0
+ a=(3.00)*(0.50) l=0.50 m=3*1 p=2*(3.00)+2*(0.50) sa=265e-3 sb=265e-3
+ sd=280e-3 w=3.00
XMI8 fbk_n in net52 vgnd sky130_fd_pr__nfet_g5v0d10v5 AD=0 AS=0 PD=0 PS=0
+ a=(3.00)*(0.50) l=0.50 m=3*1 p=2*(3.00)+2*(0.50) sa=265e-3 sb=265e-3
+ sd=280e-3 w=3.00
XMmnrst fbk rst_h vgnd vgnd sky130_fd_pr__nfet_g5v0d10v5 AD=0 AS=0 PD=0 PS=0
+ a=(1.00)*(0.50) l=0.50 m=1*1 p=2*(1.00)+2*(0.50) sa=265e-3 sb=265e-3
+ sd=280e-3 w=1.00
XMI13 out_h_n fbk vgnd vgnd sky130_fd_pr__nfet_g5v0d10v5 AD=0 AS=0 PD=0 PS=0
+ a=(1.00)*(0.50) l=0.50 m=1*1 p=2*(1.00)+2*(0.50) sa=265e-3 sb=265e-3
+ sd=280e-3 w=1.00
.ENDS

************************************************************************
* Library Name: s8iom0s8
* Cell Name: sky130_fd_io__gpiov2_amx_inv4
* View Name: schematic
************************************************************************

.SUBCKT sky130_fd_io__gpiov2_amx_inv4 A Y vda vssa
*.PININFO A:I vda:I vssa:I Y:O
XMI75 Y A vssa vssa sky130_fd_pr__nfet_g5v0d10v5 AD=0 AS=0 PD=0 PS=0
+ a=(0.42)*(0.60) l=0.60 m=2*1 p=2*(0.42)+2*(0.60) sa=265e-3 sb=265e-3
+ sd=280e-3 w=0.42
XMI74 Y A vda vda sky130_fd_pr__pfet_g5v0d10v5 AD=0 AS=0 PD=0 PS=0
+ a=(1.00)*(0.60) l=0.60 m=2*1 p=2*(1.00)+2*(0.60) sa=265e-3 sb=265e-3
+ sd=280e-3 w=1.00
.ENDS

************************************************************************
* Library Name: s8iom0s8
* Cell Name: sky130_fd_io__hvsbt_inv_x2
* View Name: schematic
************************************************************************

.SUBCKT sky130_fd_io__hvsbt_inv_x2 in out vgnd vpwr
*.PININFO in:I vgnd:I vpwr:I out:O
XMI2 out in vgnd vgnd sky130_fd_pr__nfet_g5v0d10v5 AD=0 AS=0 PD=0 PS=0
+ a=(0.70)*(0.60) l=0.60 m=2*1 p=2*(0.70)+2*(0.60) sa=265e-3 sb=265e-3
+ sd=280e-3 w=0.70
XMI1 out in vpwr vpwr sky130_fd_pr__pfet_g5v0d10v5 AD=0 AS=0 PD=0 PS=0
+ a=(1.00)*(0.60) l=0.60 m=4*1 p=2*(1.00)+2*(0.60) sa=265e-3 sb=265e-3
+ sd=280e-3 w=1.00
.ENDS

************************************************************************
* Library Name: s8iom0s8
* Cell Name: sky130_fd_io__gpiov2_amx_pdcsd_inv
* View Name: schematic
************************************************************************

.SUBCKT sky130_fd_io__gpiov2_amx_pdcsd_inv A Y vda vssa
*.PININFO A:I vda:I vssa:I Y:O
XMI519 Y vssa vssa vssa sky130_fd_pr__nfet_g5v0d10v5 AD=0 AS=0 PD=0 PS=0
+ a=(1.50)*(0.50) l=0.50 m=1*1 p=2*(1.50)+2*(0.50) sa=265e-3 sb=265e-3
+ sd=280e-3 w=1.50
XMI414 Y A vssa vssa sky130_fd_pr__nfet_g5v0d10v5 AD=0 AS=0 PD=0 PS=0
+ a=(1.50)*(0.50) l=0.50 m=1*1 p=2*(1.50)+2*(0.50) sa=265e-3 sb=265e-3
+ sd=280e-3 w=1.50
XMI429 Y A vda vda sky130_fd_pr__pfet_g5v0d10v5 AD=0 AS=0 PD=0 PS=0
+ a=(0.75)*(2.00) l=2.00 m=1*1 p=2*(0.75)+2*(2.00) sa=265e-3 sb=265e-3
+ sd=280e-3 w=0.75
XMI517 Y A vda vda sky130_fd_pr__pfet_g5v0d10v5 AD=0 AS=0 PD=0 PS=0
+ a=(0.75)*(2.00) l=2.00 m=1*1 p=2*(0.75)+2*(2.00) sa=265e-3 sb=265e-3
+ sd=280e-3 w=0.75
.ENDS

************************************************************************
* Library Name: s8iom0s8
* Cell Name: sky130_fd_io__amx_inv1
* View Name: schematic
************************************************************************

.SUBCKT sky130_fd_io__amx_inv1 A Y vda vssa
*.PININFO A:I vda:I vssa:I Y:O
XMI92 Y A vssa vssa sky130_fd_pr__nfet_g5v0d10v5 AD=0 AS=0 PD=0 PS=0
+ a=(0.75)*(0.50) l=0.50 m=1*1 p=2*(0.75)+2*(0.50) sa=265e-3 sb=265e-3
+ sd=280e-3 w=0.75
XMI54 Y A vda vda sky130_fd_pr__pfet_g5v0d10v5 AD=0 AS=0 PD=0 PS=0
+ a=(1.50)*(0.50) l=0.50 m=1*1 p=2*(1.50)+2*(0.50) sa=265e-3 sb=265e-3
+ sd=280e-3 w=1.50
.ENDS

************************************************************************
* Library Name: s8iom0s8
* Cell Name: sky130_fd_io__gpiov2_amux_drvr_ls
* View Name: schematic
************************************************************************

.SUBCKT sky130_fd_io__gpiov2_amux_drvr_ls in in_b out_h out_h_n rst_h rst_h_n vgnd vpwr_hv
+ vpwr_lv
*.PININFO in:I in_b:I rst_h:I rst_h_n:I vgnd:I vpwr_hv:I vpwr_lv:I out_h:O
*.PININFO out_h_n:O
XMI9 out_h out_h_n vpwr_hv vpwr_hv sky130_fd_pr__pfet_g5v0d10v5 AD=0 AS=0 PD=0 PS=0
+ a=(0.70)*(0.60) l=0.60 m=1*1 p=2*(0.70)+2*(0.60) sa=265e-3 sb=265e-3
+ sd=280e-3 w=0.70
XMI11 out_h_n out_h vpwr_hv vpwr_hv sky130_fd_pr__pfet_g5v0d10v5 AD=0 AS=0 PD=0 PS=0
+ a=(0.70)*(0.60) l=0.60 m=1*1 p=2*(0.70)+2*(0.60) sa=265e-3 sb=265e-3
+ sd=280e-3 w=0.70
XMI20 net38 vpwr_lv net54 vgnd sky130_fd_pr__nfet_05v0_nvt AD=0 AS=0 PD=0 PS=0
+ a=(1.00)*(0.90) l=0.90 m=2*1 p=2*(1.00)+2*(0.90) sa=265e-3 sb=265e-3
+ sd=280e-3 w=1.00
XMI21 net42 vpwr_lv net58 vgnd sky130_fd_pr__nfet_05v0_nvt AD=0 AS=0 PD=0 PS=0
+ a=(1.00)*(0.90) l=0.90 m=2*1 p=2*(1.00)+2*(0.90) sa=265e-3 sb=265e-3
+ sd=280e-3 w=1.00
XMI24 out_h_n rst_h_n net42 vgnd sky130_fd_pr__nfet_g5v0d10v5 AD=0 AS=0 PD=0 PS=0
+ a=(1.50)*(0.50) l=0.50 m=2*1 p=2*(1.50)+2*(0.50) sa=265e-3 sb=265e-3
+ sd=280e-3 w=1.50
XMI25 out_h rst_h_n net38 vgnd sky130_fd_pr__nfet_g5v0d10v5 AD=0 AS=0 PD=0 PS=0
+ a=(1.50)*(0.50) l=0.50 m=2*1 p=2*(1.50)+2*(0.50) sa=265e-3 sb=265e-3
+ sd=280e-3 w=1.50
XMI12 net54 in_b vgnd vgnd sky130_fd_pr__nfet_01v8_lvt AD=0 AS=0 PD=0 PS=0
+ a=(1.00)*(0.15) l=0.15 m=2*1 p=2*(1.00)+2*(0.15) sa=265e-3 sb=265e-3
+ sd=280e-3 w=1.00
XMI6 net58 in vgnd vgnd sky130_fd_pr__nfet_01v8_lvt AD=0 AS=0 PD=0 PS=0
+ a=(1.00)*(0.15) l=0.15 m=2*1 p=2*(1.00)+2*(0.15) sa=265e-3 sb=265e-3
+ sd=280e-3 w=1.00
XMI17 out_h rst_h vgnd vgnd sky130_fd_pr__nfet_g5v0d10v5 AD=0 AS=0 PD=0 PS=0
+ a=(1.50)*(0.50) l=0.50 m=2*1 p=2*(1.50)+2*(0.50) sa=265e-3 sb=265e-3
+ sd=280e-3 w=1.50
.ENDS

************************************************************************
* Library Name: s8iom0s8
* Cell Name: sky130_fd_io__gpiov2_amux_drvr
* View Name: schematic
************************************************************************

.SUBCKT sky130_fd_io__gpiov2_amux_drvr amux_en_vdda_h amux_en_vdda_h_n amux_en_vddio_h amux_en_vddio_h_n
+ amux_en_vswitch_h amux_en_vswitch_h_n amuxbusa_on amuxbusa_on_n amuxbusb_on amuxbusb_on_n
+ nga_amx_vswitch_h nga_pad_vswitch_h nga_pad_vswitch_h_n ngb_amx_vswitch_h ngb_pad_vswitch_h
+ ngb_pad_vswitch_h_n nmida_on_n nmida_vccd nmida_vccd_n nmidb_on_n nmidb_vccd nmidb_vccd_n
+ pd_csd_vswitch_h pd_csd_vswitch_h_n pd_on pd_on_n pga_amx_vdda_h_n pga_pad_vddioq_h_n
+ pgb_amx_vdda_h_n pgb_pad_vddioq_h_n pu_csd_vddioq_h_n pu_on pu_on_n vccd vdda vddio_q vssa vssd
+ vswitch
*.PININFO amux_en_vdda_h:I amux_en_vdda_h_n:I amux_en_vddio_h:I
*.PININFO amux_en_vddio_h_n:I amux_en_vswitch_h:I amux_en_vswitch_h_n:I
*.PININFO amuxbusa_on:I amuxbusa_on_n:I amuxbusb_on:I amuxbusb_on_n:I
*.PININFO nmida_on_n:I nmidb_on_n:I pd_on:I pd_on_n:I pu_on:I pu_on_n:I vccd:I
*.PININFO vdda:I vddio_q:I vssa:I vssd:I vswitch:I nga_amx_vswitch_h:O
*.PININFO nga_pad_vswitch_h:O nga_pad_vswitch_h_n:O ngb_amx_vswitch_h:O
*.PININFO ngb_pad_vswitch_h:O ngb_pad_vswitch_h_n:O nmida_vccd:O
*.PININFO nmida_vccd_n:O nmidb_vccd:O nmidb_vccd_n:O pd_csd_vswitch_h:O
*.PININFO pd_csd_vswitch_h_n:O pga_amx_vdda_h_n:O pga_pad_vddioq_h_n:O
*.PININFO pgb_amx_vdda_h_n:O pgb_pad_vddioq_h_n:O pu_csd_vddioq_h_n:O
XI105 nmidb_vccd nmidb_vccd_n vssd vccd / sky130_fd_io__hvsbt_inv_x1
XI93 nmida_vccd nmida_vccd_n vssd vccd / sky130_fd_io__hvsbt_inv_x1
XI38 net274 pu_csd_vddioq_h_n vddio_q vssd / sky130_fd_io__gpiov2_amx_pucsd_inv
XI103 net239 net245 pgb_amx_vdda_h_n amux_en_vdda_h_n amux_en_vdda_h vssa vdda /
+ sky130_fd_io__gpiov2_amux_drvr_lshv2hv
Xpga_amx_ls net265 net272 pga_amx_vdda_h_n amux_en_vdda_h_n amux_en_vdda_h vssa vdda /
+ sky130_fd_io__gpiov2_amux_drvr_lshv2hv
XI64 net236 ngb_pad_vswitch_h vswitch vssa / sky130_fd_io__gpiov2_amx_inv4
XI63 net236 ngb_amx_vswitch_h vswitch vssa / sky130_fd_io__gpiov2_amx_inv4
XI62 net239 pgb_pad_vddioq_h_n vddio_q vssd / sky130_fd_io__gpiov2_amx_inv4
XI47 net256 nga_pad_vswitch_h vswitch vssa / sky130_fd_io__gpiov2_amx_inv4
XI42 net265 pga_pad_vddioq_h_n vddio_q vssd / sky130_fd_io__gpiov2_amx_inv4
XI45 net256 nga_amx_vswitch_h vswitch vssa / sky130_fd_io__gpiov2_amx_inv4
XI89 nmida_on_n nmida_vccd vssd vccd / sky130_fd_io__hvsbt_inv_x2
XI53 nmidb_on_n nmidb_vccd vssd vccd / sky130_fd_io__hvsbt_inv_x2
Xpdcsd_inv net254 pd_csd_vswitch_h vswitch vssa / sky130_fd_io__gpiov2_amx_pdcsd_inv
XI90 pd_csd_vswitch_h pd_csd_vswitch_h_n vswitch vssa / sky130_fd_io__amx_inv1
XI85 ngb_pad_vswitch_h ngb_pad_vswitch_h_n vswitch vssa / sky130_fd_io__amx_inv1
XI87 nga_pad_vswitch_h nga_pad_vswitch_h_n vswitch vssa / sky130_fd_io__amx_inv1
XMI104 pd_csd_vswitch_h amux_en_vddio_h_n vssa vssa sky130_fd_pr__nfet_g5v0d10v5 AD=0 AS=0 PD=0 PS=0
+ a=(1.00)*(0.50) l=0.50 m=1*1 p=2*(1.00)+2*(0.50) sa=265e-3 sb=265e-3
+ sd=280e-3 w=1.00
XMI78 nga_pad_vswitch_h amux_en_vddio_h_n vssa vssa sky130_fd_pr__nfet_g5v0d10v5 AD=0 AS=0 PD=0 PS=0
+ a=(1.00)*(0.50) l=0.50 m=1*1 p=2*(1.00)+2*(0.50) sa=265e-3 sb=265e-3
+ sd=280e-3 w=1.00
XMI75 nga_amx_vswitch_h amux_en_vdda_h_n vssa vssa sky130_fd_pr__nfet_g5v0d10v5 AD=0 AS=0 PD=0 PS=0
+ a=(1.00)*(0.50) l=0.50 m=1*1 p=2*(1.00)+2*(0.50) sa=265e-3 sb=265e-3
+ sd=280e-3 w=1.00
XMI77 ngb_pad_vswitch_h amux_en_vddio_h_n vssa vssa sky130_fd_pr__nfet_g5v0d10v5 AD=0 AS=0 PD=0 PS=0
+ a=(1.00)*(0.50) l=0.50 m=1*1 p=2*(1.00)+2*(0.50) sa=265e-3 sb=265e-3
+ sd=280e-3 w=1.00
XMI76 ngb_amx_vswitch_h amux_en_vdda_h_n vssa vssa sky130_fd_pr__nfet_g5v0d10v5 AD=0 AS=0 PD=0 PS=0
+ a=(1.00)*(0.50) l=0.50 m=1*1 p=2*(1.00)+2*(0.50) sa=265e-3 sb=265e-3
+ sd=280e-3 w=1.00
Xngb_ls amuxbusb_on amuxbusb_on_n net230 net236 amux_en_vswitch_h_n amux_en_vswitch_h vssa vswitch
+ vccd / sky130_fd_io__gpiov2_amux_drvr_ls
Xpgb_pad_ls amuxbusb_on amuxbusb_on_n net239 net245 amux_en_vddio_h_n amux_en_vddio_h vssd vddio_q
+ vccd / sky130_fd_io__gpiov2_amux_drvr_ls
Xpd_csd_ls pd_on pd_on_n net248 net254 amux_en_vswitch_h_n amux_en_vswitch_h vssa vswitch vccd
+ / sky130_fd_io__gpiov2_amux_drvr_ls
Xnga_ls amuxbusa_on amuxbusa_on_n net257 net256 amux_en_vswitch_h_n amux_en_vswitch_h vssa vswitch
+ vccd / sky130_fd_io__gpiov2_amux_drvr_ls
Xpga_pad_ls amuxbusa_on amuxbusa_on_n net265 net272 amux_en_vddio_h_n amux_en_vddio_h vssd vddio_q
+ vccd / sky130_fd_io__gpiov2_amux_drvr_ls
Xpu_csd_ls pu_on pu_on_n net274 net275 amux_en_vddio_h_n amux_en_vddio_h vssd vddio_q vccd
+ / sky130_fd_io__gpiov2_amux_drvr_ls
.ENDS

************************************************************************
* Library Name: s8iom0s8
* Cell Name: sky130_fd_io__nor2_1
* View Name: schematic
************************************************************************

.SUBCKT sky130_fd_io__nor2_1 A B Y vgnd vnb vpb vpwr
*.PININFO A:I B:I vgnd:I vnb:I vpb:I vpwr:I Y:O
XMMP1 sndPA B Y vpb sky130_fd_pr__pfet_01v8_hvt AD=0 AS=0 PD=0 PS=0
+ a=(1.12)*(0.15) l=0.15 m=1*1 p=2*(1.12)+2*(0.15) sa=265e-3 sb=265e-3
+ sd=280e-3 w=1.12
XMMP0 vpwr A sndPA vpb sky130_fd_pr__pfet_01v8_hvt AD=0 AS=0 PD=0 PS=0
+ a=(1.12)*(0.15) l=0.15 m=1*1 p=2*(1.12)+2*(0.15) sa=265e-3 sb=265e-3
+ sd=280e-3 w=1.12
XMMN1 Y B vgnd vnb sky130_fd_pr__nfet_01v8 AD=0 AS=0 PD=0 PS=0
+ a=(740e-3)*(150e-3) l=150e-3 m=1*1 p=2*(740e-3)+2*(150e-3) sa=265e-3
+ sb=265e-3 sd=280e-3 w=740e-3
XMMN0 Y A vgnd vnb sky130_fd_pr__nfet_01v8 AD=0 AS=0 PD=0 PS=0
+ a=(740e-3)*(150e-3) l=150e-3 m=1*1 p=2*(740e-3)+2*(150e-3) sa=265e-3
+ sb=265e-3 sd=280e-3 w=740e-3
.ENDS

************************************************************************
* Library Name: s8iom0s8
* Cell Name: sky130_fd_io__nand2_1
* View Name: schematic
************************************************************************

.SUBCKT sky130_fd_io__nand2_1 A B Y vgnd vnb vpb vpwr
*.PININFO A:I B:I vgnd:I vnb:I vpb:I vpwr:I Y:O
XMMP1 Y B vpwr vpb sky130_fd_pr__pfet_01v8_hvt AD=0 AS=0 PD=0 PS=0
+ a=(1.12)*(0.15) l=0.15 m=1*1 p=2*(1.12)+2*(0.15) sa=265e-3 sb=265e-3
+ sd=280e-3 w=1.12
XMMP0 Y A vpwr vpb sky130_fd_pr__pfet_01v8_hvt AD=0 AS=0 PD=0 PS=0
+ a=(1.12)*(0.15) l=0.15 m=1*1 p=2*(1.12)+2*(0.15) sa=265e-3 sb=265e-3
+ sd=280e-3 w=1.12
XMMN1 sndA B vgnd vnb sky130_fd_pr__nfet_01v8 AD=0 AS=0 PD=0 PS=0
+ a=(0.74)*(0.15) l=0.15 m=1*1 p=2*(0.74)+2*(0.15) sa=265e-3 sb=265e-3
+ sd=280e-3 w=0.74
XMMN0 Y A sndA vnb sky130_fd_pr__nfet_01v8 AD=0 AS=0 PD=0 PS=0
+ a=(0.74)*(0.15) l=0.15 m=1*1 p=2*(0.74)+2*(0.15) sa=265e-3 sb=265e-3
+ sd=280e-3 w=0.74
.ENDS

************************************************************************
* Library Name: s8iom0s8
* Cell Name: sky130_fd_io__hvsbt_nor
* View Name: schematic
************************************************************************

.SUBCKT sky130_fd_io__hvsbt_nor in0 in1 out vgnd vpwr
*.PININFO in0:I in1:I vgnd:I vpwr:I out:O
XMI12 out in1 net16 vpwr sky130_fd_pr__pfet_g5v0d10v5 AD=0 AS=0 PD=0 PS=0
+ a=(1.00)*(0.60) l=0.60 m=1*2 p=2*(1.00)+2*(0.60) sa=265e-3 sb=265e-3
+ sd=280e-3 w=1.00
XMI3 net16 in0 vpwr vpwr sky130_fd_pr__pfet_g5v0d10v5 AD=0 AS=0 PD=0 PS=0
+ a=(1.00)*(0.60) l=0.60 m=1*2 p=2*(1.00)+2*(0.60) sa=265e-3 sb=265e-3
+ sd=280e-3 w=1.00
XMI6 out in1 vgnd vgnd sky130_fd_pr__nfet_g5v0d10v5 AD=0 AS=0 PD=0 PS=0
+ a=(0.70)*(0.60) l=0.60 m=1*1 p=2*(0.70)+2*(0.60) sa=265e-3 sb=265e-3
+ sd=280e-3 w=0.70
XMI1 out in0 vgnd vgnd sky130_fd_pr__nfet_g5v0d10v5 AD=0 AS=0 PD=0 PS=0
+ a=(0.70)*(0.60) l=0.60 m=1*1 p=2*(0.70)+2*(0.60) sa=265e-3 sb=265e-3
+ sd=280e-3 w=0.70
.ENDS

************************************************************************
* Library Name: s8iom0s8
* Cell Name: sky130_fd_io__gpiov2_amux_nand5
* View Name: schematic
************************************************************************

.SUBCKT sky130_fd_io__gpiov2_amux_nand5 in0 in1 in2 in3 in4 out vgnd vpwr
*.PININFO in0:I in1:I in2:I in3:I in4:I vgnd:I vpwr:I out:O
XMI21 out_n out vpwr vpwr sky130_fd_pr__pfet_g5v0d10v5 AD=0 AS=0 PD=0 PS=0
+ a=(1.00)*(0.60) l=0.60 m=2*1 p=2*(1.00)+2*(0.60) sa=265e-3 sb=265e-3
+ sd=280e-3 w=1.00
XMI20 out out_n vpwr vpwr sky130_fd_pr__pfet_g5v0d10v5 AD=0 AS=0 PD=0 PS=0
+ a=(0.42)*(0.50) l=0.50 m=1*1 p=2*(0.42)+2*(0.50) sa=265e-3 sb=265e-3
+ sd=280e-3 w=0.42
XMI3 out in0 vpwr vpwr sky130_fd_pr__pfet_g5v0d10v5 AD=0 AS=0 PD=0 PS=0
+ a=(1.00)*(0.60) l=0.60 m=2*1 p=2*(1.00)+2*(0.60) sa=265e-3 sb=265e-3
+ sd=280e-3 w=1.00
XMI23 vgnd out_n vgnd vgnd sky130_fd_pr__nfet_g5v0d10v5 AD=0 AS=0 PD=0 PS=0
+ a=(0.42)*(0.50) l=0.50 m=1*1 p=2*(0.42)+2*(0.50) sa=265e-3 sb=265e-3
+ sd=280e-3 w=0.42
XMI22 out_n out vgnd vgnd sky130_fd_pr__nfet_g5v0d10v5 AD=0 AS=0 PD=0 PS=0
+ a=(0.42)*(0.50) l=0.50 m=1*1 p=2*(0.42)+2*(0.50) sa=265e-3 sb=265e-3
+ sd=280e-3 w=0.42
XMI14 net51 in2 net55 vgnd sky130_fd_pr__nfet_g5v0d10v5 AD=0 AS=0 PD=0 PS=0
+ a=(5.00)*(0.50) l=0.50 m=1*1 p=2*(5.00)+2*(0.50) sa=265e-3 sb=265e-3
+ sd=280e-3 w=5.00
XMI15 net55 in3 net63 vgnd sky130_fd_pr__nfet_g5v0d10v5 AD=0 AS=0 PD=0 PS=0
+ a=(5.00)*(0.50) l=0.50 m=1*1 p=2*(5.00)+2*(0.50) sa=265e-3 sb=265e-3
+ sd=280e-3 w=5.00
XMI6 net59 in0 vgnd vgnd sky130_fd_pr__nfet_g5v0d10v5 AD=0 AS=0 PD=0 PS=0
+ a=(5.00)*(0.50) l=0.50 m=1*1 p=2*(5.00)+2*(0.50) sa=265e-3 sb=265e-3
+ sd=280e-3 w=5.00
XMI18 net63 in4 net59 vgnd sky130_fd_pr__nfet_g5v0d10v5 AD=0 AS=0 PD=0 PS=0
+ a=(5.00)*(0.50) l=0.50 m=1*1 p=2*(5.00)+2*(0.50) sa=265e-3 sb=265e-3
+ sd=280e-3 w=5.00
XMI1 out in1 net51 vgnd sky130_fd_pr__nfet_g5v0d10v5 AD=0 AS=0 PD=0 PS=0
+ a=(5.00)*(0.50) l=0.50 m=1*1 p=2*(5.00)+2*(0.50) sa=265e-3 sb=265e-3
+ sd=280e-3 w=5.00
.ENDS

************************************************************************
* Library Name: s8iom0s8
* Cell Name: sky130_fd_io__gpiov2_amux_nand4
* View Name: schematic
************************************************************************

.SUBCKT sky130_fd_io__gpiov2_amux_nand4 in0 in1 in2 in3 out vgnd vpwr
*.PININFO in0:I in1:I in2:I in3:I vgnd:I vpwr:I out:O
XMI20 out out_n vpwr vpwr sky130_fd_pr__pfet_g5v0d10v5 AD=0 AS=0 PD=0 PS=0
+ a=(0.42)*(0.50) l=0.50 m=1*1 p=2*(0.42)+2*(0.50) sa=265e-3 sb=265e-3
+ sd=280e-3 w=0.42
XMI19 out_n out vpwr vpwr sky130_fd_pr__pfet_g5v0d10v5 AD=0 AS=0 PD=0 PS=0
+ a=(1.00)*(0.60) l=0.60 m=2*1 p=2*(1.00)+2*(0.60) sa=265e-3 sb=265e-3
+ sd=280e-3 w=1.00
XMI3 out in0 vpwr vpwr sky130_fd_pr__pfet_g5v0d10v5 AD=0 AS=0 PD=0 PS=0
+ a=(1.00)*(0.60) l=0.60 m=2*1 p=2*(1.00)+2*(0.60) sa=265e-3 sb=265e-3
+ sd=280e-3 w=1.00
XMI21 vgnd out_n vgnd vgnd sky130_fd_pr__nfet_g5v0d10v5 AD=0 AS=0 PD=0 PS=0
+ a=(0.42)*(0.50) l=0.50 m=1*1 p=2*(0.42)+2*(0.50) sa=265e-3 sb=265e-3
+ sd=280e-3 w=0.42
XMI18 out_n out vgnd vgnd sky130_fd_pr__nfet_g5v0d10v5 AD=0 AS=0 PD=0 PS=0
+ a=(0.42)*(0.50) l=0.50 m=1*1 p=2*(0.42)+2*(0.50) sa=265e-3 sb=265e-3
+ sd=280e-3 w=0.42
XMI14 net50 in2 net54 vgnd sky130_fd_pr__nfet_g5v0d10v5 AD=0 AS=0 PD=0 PS=0
+ a=(5.00)*(0.50) l=0.50 m=1*1 p=2*(5.00)+2*(0.50) sa=265e-3 sb=265e-3
+ sd=280e-3 w=5.00
XMI15 net54 in3 net58 vgnd sky130_fd_pr__nfet_g5v0d10v5 AD=0 AS=0 PD=0 PS=0
+ a=(5.00)*(0.50) l=0.50 m=1*1 p=2*(5.00)+2*(0.50) sa=265e-3 sb=265e-3
+ sd=280e-3 w=5.00
XMI6 net58 in0 vgnd vgnd sky130_fd_pr__nfet_g5v0d10v5 AD=0 AS=0 PD=0 PS=0
+ a=(5.00)*(0.50) l=0.50 m=1*1 p=2*(5.00)+2*(0.50) sa=265e-3 sb=265e-3
+ sd=280e-3 w=5.00
XMI1 out in1 net50 vgnd sky130_fd_pr__nfet_g5v0d10v5 AD=0 AS=0 PD=0 PS=0
+ a=(5.00)*(0.50) l=0.50 m=1*1 p=2*(5.00)+2*(0.50) sa=265e-3 sb=265e-3
+ sd=280e-3 w=5.00
.ENDS

************************************************************************
* Library Name: s8iom0s8
* Cell Name: sky130_fd_io__hvsbt_nand2
* View Name: schematic
************************************************************************

.SUBCKT sky130_fd_io__hvsbt_nand2 in0 in1 out vgnd vpwr
*.PININFO in0:I in1:I vgnd:I vpwr:I out:O
XMI5 out in1 vpwr vpwr sky130_fd_pr__pfet_g5v0d10v5 AD=0 AS=0 PD=0 PS=0
+ a=(1.00)*(0.60) l=0.60 m=2*1 p=2*(1.00)+2*(0.60) sa=265e-3 sb=265e-3
+ sd=280e-3 w=1.00
XMI3 out in0 vpwr vpwr sky130_fd_pr__pfet_g5v0d10v5 AD=0 AS=0 PD=0 PS=0
+ a=(1.00)*(0.60) l=0.60 m=2*1 p=2*(1.00)+2*(0.60) sa=265e-3 sb=265e-3
+ sd=280e-3 w=1.00
XMI6 net25 in0 vgnd vgnd sky130_fd_pr__nfet_g5v0d10v5 AD=0 AS=0 PD=0 PS=0
+ a=(0.70)*(0.60) l=0.60 m=1*1 p=2*(0.70)+2*(0.60) sa=265e-3 sb=265e-3
+ sd=280e-3 w=0.70
XMI1 out in1 net25 vgnd sky130_fd_pr__nfet_g5v0d10v5 AD=0 AS=0 PD=0 PS=0
+ a=(0.70)*(0.60) l=0.60 m=1*1 p=2*(0.70)+2*(0.60) sa=265e-3 sb=265e-3
+ sd=280e-3 w=0.70
.ENDS

************************************************************************
* Library Name: s8iom0s8
* Cell Name: sky130_fd_io__xor2_1
* View Name: schematic
************************************************************************

.SUBCKT sky130_fd_io__xor2_1 A B X vgnd vpwr
*.PININFO A:I B:I vgnd:I vpwr:I X:O
XMMNaoi20 X inor vgnd vgnd sky130_fd_pr__nfet_01v8 AD=0 AS=0 PD=0 PS=0
+ a=(840e-3)*(150e-3) l=150e-3 m=1*1 p=2*(840e-3)+2*(150e-3) sa=265e-3
+ sb=265e-3 sd=280e-3 w=840e-3
XMMNaoi11 sndNA B X vgnd sky130_fd_pr__nfet_01v8 AD=0 AS=0 PD=0 PS=0
+ a=(840e-3)*(150e-3) l=150e-3 m=1*1 p=2*(840e-3)+2*(150e-3) sa=265e-3
+ sb=265e-3 sd=280e-3 w=840e-3
XMMNaoi10 vgnd A sndNA vgnd sky130_fd_pr__nfet_01v8 AD=0 AS=0 PD=0 PS=0
+ a=(840e-3)*(150e-3) l=150e-3 m=1*1 p=2*(840e-3)+2*(150e-3) sa=265e-3
+ sb=265e-3 sd=280e-3 w=840e-3
XMMNnor1 inor B vgnd vgnd sky130_fd_pr__nfet_01v8 AD=0 AS=0 PD=0 PS=0
+ a=(840e-3)*(150e-3) l=150e-3 m=1*1 p=2*(840e-3)+2*(150e-3) sa=265e-3
+ sb=265e-3 sd=280e-3 w=840e-3
XMMNnor0 inor A vgnd vgnd sky130_fd_pr__nfet_01v8 AD=0 AS=0 PD=0 PS=0
+ a=(840e-3)*(150e-3) l=150e-3 m=1*1 p=2*(840e-3)+2*(150e-3) sa=265e-3
+ sb=265e-3 sd=280e-3 w=840e-3
XMMPaoi20 X inor pmid vpwr sky130_fd_pr__pfet_01v8_hvt AD=0 AS=0 PD=0 PS=0
+ a=(1.26)*(150e-3) l=150e-3 m=1*1 p=2*(1.26)+2*(150e-3) sa=265e-3
+ sb=265e-3 sd=280e-3 w=1.26
XMMPaoi11 pmid B vpwr vpwr sky130_fd_pr__pfet_01v8_hvt AD=0 AS=0 PD=0 PS=0
+ a=(1.26)*(150e-3) l=150e-3 m=1*1 p=2*(1.26)+2*(150e-3) sa=265e-3
+ sb=265e-3 sd=280e-3 w=1.26
XMMPaoi10 pmid A vpwr vpwr sky130_fd_pr__pfet_01v8_hvt AD=0 AS=0 PD=0 PS=0
+ a=(1.26)*(150e-3) l=150e-3 m=1*1 p=2*(1.26)+2*(150e-3) sa=265e-3
+ sb=265e-3 sd=280e-3 w=1.26
XMMPnor1 sndPA B inor vpwr sky130_fd_pr__pfet_01v8_hvt AD=0 AS=0 PD=0 PS=0
+ a=(1.26)*(150e-3) l=150e-3 m=1*1 p=2*(1.26)+2*(150e-3) sa=265e-3
+ sb=265e-3 sd=280e-3 w=1.26
XMMPnor0 vpwr A sndPA vpwr sky130_fd_pr__pfet_01v8_hvt AD=0 AS=0 PD=0 PS=0
+ a=(1.26)*(150e-3) l=150e-3 m=1*1 p=2*(1.26)+2*(150e-3) sa=265e-3
+ sb=265e-3 sd=280e-3 w=1.26
.ENDS

************************************************************************
* Library Name: s8iom0s8
* Cell Name: sky130_fd_io__inv_1
* View Name: schematic
************************************************************************

.SUBCKT sky130_fd_io__inv_1 A Y vgnd vnb vpb vpwr
*.PININFO A:I vgnd:I vnb:I vpb:I vpwr:I Y:O
XMMIN1 Y A vgnd vnb sky130_fd_pr__nfet_01v8 AD=0 AS=0 PD=0 PS=0
+ a=(0.74)*(0.15) l=0.15 m=1*1 p=2*(0.74)+2*(0.15) sa=265e-3 sb=265e-3
+ sd=280e-3 w=0.74
XMMIP1 Y A vpwr vpb sky130_fd_pr__pfet_01v8_hvt AD=0 AS=0 PD=0 PS=0
+ a=(1.12)*(0.15) l=0.15 m=1*1 p=2*(1.12)+2*(0.15) sa=265e-3 sb=265e-3
+ sd=280e-3 w=1.12
.ENDS

************************************************************************
* Library Name: s8iom0s8
* Cell Name: sky130_fd_io__gpiov2_amux_decoder
* View Name: schematic
************************************************************************

.SUBCKT sky130_fd_io__gpiov2_amux_decoder amuxbusa_on amuxbusa_on_n amuxbusb_on amuxbusb_on_n analog_en
+ analog_pol analog_sel nga_pad_vswitch_h nga_pad_vswitch_h_n ngb_pad_vswitch_h ngb_pad_vswitch_h_n
+ nmida_on_n nmida_vccd_n nmidb_on_n nmidb_vccd_n out pd_on pd_on_n pd_vswitch_h_n pga_amx_vdda_h_n
+ pga_pad_vddioq_h_n pgb_amx_vdda_h_n pgb_pad_vddioq_h_n pu_on pu_on_n pu_vddioq_h_n vccd vssd
*.PININFO analog_en:I analog_pol:I analog_sel:I nga_pad_vswitch_h:I
*.PININFO nga_pad_vswitch_h_n:I ngb_pad_vswitch_h:I ngb_pad_vswitch_h_n:I
*.PININFO nmida_vccd_n:I nmidb_vccd_n:I out:I pd_vswitch_h_n:I
*.PININFO pga_amx_vdda_h_n:I pga_pad_vddioq_h_n:I pgb_amx_vdda_h_n:I
*.PININFO pgb_pad_vddioq_h_n:I pu_vddioq_h_n:I vccd:I vssd:I amuxbusa_on:O
*.PININFO amuxbusa_on_n:O amuxbusb_on:O amuxbusb_on_n:O nmida_on_n:O
*.PININFO nmidb_on_n:O pd_on:O pd_on_n:O pu_on:O pu_on_n:O
XI114 ana_en_i_n net137 int_amuxb_on vssd vssd vccd vccd / sky130_fd_io__nor2_1
XI115 ana_en_i_n int_pu_on_n int_pu_on vssd vssd vccd vccd / sky130_fd_io__nor2_1
XI113 ana_en_i_n net144 int_amuxa_on vssd vssd vccd vccd / sky130_fd_io__nor2_1
XI116 ana_en_i_n int_pd_on_n int_pd_on vssd vssd vccd vccd / sky130_fd_io__nor2_1
XI110 pol_xor_out ana_sel_i net137 vssd vssd vccd vccd / sky130_fd_io__nand2_1
XI109 ana_sel_i_n pol_xor_out net144 vssd vssd vccd vccd / sky130_fd_io__nand2_1
XI112 ana_pol_i_n out_i_n int_pd_on_n vssd vssd vccd vccd / sky130_fd_io__nand2_1
XI111 ana_pol_i out_i int_pu_on_n vssd vssd vccd vccd / sky130_fd_io__nand2_1
XI102 nga_pad_vswitch_h net222 net167 vssd vccd / sky130_fd_io__hvsbt_nor
XI106 ngb_pad_vswitch_h net212 net172 vssd vccd / sky130_fd_io__hvsbt_nor
XI80 int_pd_on pga_pad_vddioq_h_n pgb_pad_vddioq_h_n nga_pad_vswitch_h_n ngb_pad_vswitch_h_n
+ int_fbk_pdon_n vssd vccd / sky130_fd_io__gpiov2_amux_nand5
XI79 int_pu_on pga_pad_vddioq_h_n pgb_pad_vddioq_h_n nga_pad_vswitch_h_n ngb_pad_vswitch_h_n
+ int_fbk_puon_n vssd vccd / sky130_fd_io__gpiov2_amux_nand5
XI77 int_amuxa_on pu_vddioq_h_n pd_vswitch_h_n nmida_vccd_n amuxbusa_on_n vssd vccd /
+ sky130_fd_io__gpiov2_amux_nand4