* SPICE NETLIST
***************************************

.SUBCKT MN g s d b
.ENDS
***************************************
.SUBCKT MP g s d b
.ENDS
***************************************
.SUBCKT condiode pin0 pin1
.ENDS
***************************************
.SUBCKT condiodeHvPsub pin0 pin1
.ENDS
***************************************
.SUBCKT nvhv pin0 pin1 pin2 pin3
.ENDS
***************************************
.SUBCKT n20vhv1 pin0 pin1 pin2 pin3
.ENDS
***************************************
.SUBCKT n20nativevhv1 pin0 pin1 pin2 pin3
.ENDS
***************************************
.SUBCKT n20vhviso1 pin0 pin1 pin2 pin3 pin4
.ENDS
***************************************
.SUBCKT n20nativevhviso1 pin0 pin1 pin2 pin3 pin4
.ENDS
***************************************
.SUBCKT pvhv pin0 pin1 pin2 pin3
.ENDS
***************************************
.SUBCKT p20vhv1 pin0 pin1 pin2 pin3
.ENDS
***************************************
.SUBCKT xcnwvc pin0 pin1 pin2
.ENDS
***************************************
.SUBCKT xcnwvc2 pin0 pin1 pin2
.ENDS
***************************************
.SUBCKT xchvnwc pin0 pin1 pin2
.ENDS
***************************************
.SUBCKT Dpar d0 d1
.ENDS
***************************************
.SUBCKT xcmvpp pin0 pin1 pin2
.ENDS
***************************************
.SUBCKT xcmvpp_2 pin0 pin1 pin2
.ENDS
***************************************
.SUBCKT xcmvpp2_nhvnative10x4 pin0 pin1 pin2
.ENDS
***************************************
.SUBCKT xcmvpp2_phv5x4 pin0 pin1 pin2
.ENDS
***************************************
.SUBCKT xcmvpp_hd5_atlas_fingercap2_l5 pin0 pin1 pin2
.ENDS
***************************************
.SUBCKT xcmvpp_hd5_atlas_wafflecap2 pin0 pin1 pin2
.ENDS
***************************************
.SUBCKT xcmvpp_hd5_atlas_wafflecap1 pin0 pin1 pin2
.ENDS
***************************************
.SUBCKT xcmvpp_hd5_atlas_fingercap_l40 pin0 pin1 pin2
.ENDS
***************************************
.SUBCKT xcmvpp_hd5_atlas_fingercap_l20 pin0 pin1 pin2
.ENDS
***************************************
.SUBCKT xcmvpp_hd5_atlas_fingercap_l10 pin0 pin1 pin2
.ENDS
***************************************
.SUBCKT xcmvpp_hd5_atlas_fingercap_l5 pin0 pin1 pin2
.ENDS
***************************************
.SUBCKT xcmvpp_hd5_5x2_met5pullin pin0 pin1 pin2
.ENDS
***************************************
.SUBCKT xcmvpp_hd5_5x2 pin0 pin1 pin2
.ENDS
***************************************
.SUBCKT xcmvpp_hd5_5x1_met5pullin pin0 pin1 pin2
.ENDS
***************************************
.SUBCKT xcmvpp_hd5_5x1 pin0 pin1 pin2
.ENDS
***************************************
.SUBCKT xcmvpp_hd5_4x2 pin0 pin1 pin2
.ENDS
***************************************
.SUBCKT xcmvpp_hd5_4x1 pin0 pin1 pin2
.ENDS
***************************************
.SUBCKT xcmvpp_hd5_3x2 pin0 pin1 pin2
.ENDS
***************************************
.SUBCKT xcmvpp_hd5_3x1 pin0 pin1 pin2
.ENDS
***************************************
.SUBCKT xcmvpp_hd5_2x2 pin0 pin1 pin2
.ENDS
***************************************
.SUBCKT xcmvpp_hd5_2x1 pin0 pin1 pin2
.ENDS
***************************************
.SUBCKT xcmvpp_hd5_1x2 pin0 pin1 pin2
.ENDS
***************************************
.SUBCKT xcmvpp_hd5_1x1 pin0 pin1 pin2
.ENDS
***************************************
.SUBCKT xcmvppx4_2xnhvnative10x4 pin0 pin1 pin2 pin3
.ENDS
***************************************
.SUBCKT xcmvpp11p5x11p7_polym50p4shield pin0 pin1 pin2 pin3
.ENDS
***************************************
.SUBCKT xcmvpp4p4x4p6_m3_lim5shield pin0 pin1 pin2 pin3
.ENDS
***************************************
.SUBCKT xcmvpp11p5x11p7_m3_lim5shield pin0 pin1 pin2 pin3
.ENDS
***************************************
.SUBCKT xcmvpp8p6x7p9_m3_lim5shield pin0 pin1 pin2 pin3
.ENDS
***************************************
.SUBCKT xcmvpp11p5x11p7_lim5shield pin0 pin1 pin2 pin3
.ENDS
***************************************
.SUBCKT xcmvpp11p5x11p7_polym5shield pin0 pin1 pin2 pin3
.ENDS
***************************************
.SUBCKT xcmvpp11p5x11p7_m5shield pin0 pin1 pin2 pin3
.ENDS
***************************************
.SUBCKT xcmvpp6p8x6p1_lim4shield pin0 pin1 pin2 pin3
.ENDS
***************************************
.SUBCKT xcmvpp6p8x6p1_polym4shield pin0 pin1 pin2 pin3
.ENDS
***************************************
.SUBCKT xcmvpp11p5x11p7_polym4shield pin0 pin1 pin2 pin3
.ENDS
***************************************
.SUBCKT xcmvpp11p5x11p7_m4shield pin0 pin1 pin2 pin3
.ENDS
***************************************
.SUBCKT xcmvpp1p8x1p8 pin0 pin1 pin2
.ENDS
***************************************
.SUBCKT xcmvpp4p4x4p6_m3_lishield pin0 pin1 pin2
.ENDS
***************************************
.SUBCKT xcmvpp8p6x7p9_m3_lishield pin0 pin1 pin2
.ENDS
***************************************
.SUBCKT xcmvpp11p5x11p7_m3_lishield pin0 pin1 pin2
.ENDS
***************************************
.SUBCKT xcmvpp11p5x11p7_m3shield c0 c1 b term4
.ENDS
***************************************
.SUBCKT xcmvpp8p6x7p9_m3shield c0 c1 b term4
.ENDS
***************************************
.SUBCKT xcmvpp4p4x4p6_m3shield c0 c1 b term4
.ENDS
***************************************
.SUBCKT xcmvpp1p8x1p8_m3shield c0 c1 b term4
.ENDS
***************************************
.SUBCKT xcmvpp11p5x11p7_m1m4m5shield pin0 pin1 pin2 pin3
.ENDS
***************************************
.SUBCKT xcmvpp11p5x11p7_m1m4 pin0 pin1 pin2
.ENDS
***************************************
.SUBCKT xcmvpp11p5x11p7_m1m2 pin0 pin1 pin2
.ENDS
***************************************
.SUBCKT xcmvpp4p4x4p6_m1m2 pin0 pin1 pin2
.ENDS
***************************************
.SUBCKT xcmvpp5 pin0 pin1 pin2
.ENDS
***************************************
.SUBCKT xcmvpp4 pin0 pin1 pin2
.ENDS
***************************************
.SUBCKT xcmvpp3 pin0 pin1 pin2
.ENDS
***************************************
.SUBCKT balun pin0 pin1 pin2 pin3 pin4 pin5
.ENDS
***************************************
.SUBCKT ind4 pin0 pin1 pin2 pin3
.ENDS
***************************************
.SUBCKT xhrpoly_0p35 POS NEG SUB
.ENDS
***************************************
.SUBCKT xuhrpoly_0p35 POS NEG SUB
.ENDS
***************************************
.SUBCKT xhrpoly_0p69 POS NEG SUB
.ENDS
***************************************
.SUBCKT xuhrpoly_0p69 POS NEG SUB
.ENDS
***************************************
.SUBCKT xhrpoly_1p41 POS NEG SUB
.ENDS
***************************************
.SUBCKT xuhrpoly_1p41 POS NEG SUB
.ENDS
***************************************
.SUBCKT xhrpoly_2p85 POS NEG SUB
.ENDS
***************************************
.SUBCKT xuhrpoly_2p85 POS NEG SUB
.ENDS
***************************************
.SUBCKT xhrpoly_5p73 POS NEG SUB
.ENDS
***************************************
.SUBCKT xuhrpoly_5p73 POS NEG SUB
.ENDS
***************************************
.SUBCKT Probe probe conductor
.ENDS
***************************************
.SUBCKT sky130_fd_sc_hd__decap_3 VNB VPB VGND VPWR
** N=20 EP=4 IP=0 FDC=2
*.SEEDPROM
M0 VGND VPWR VGND VNB nshort L=0.59 W=0.55 AD=0.143 AS=0.143 PD=1.62 PS=1.62 NRD=0 NRS=0 m=1 r=0.932203 sa=295000 sb=295000 a=0.3245 p=2.28 mult=1 $X=395 $Y=235 $D=9
M1 VPWR VGND VPWR VPB phighvt L=0.59 W=0.87 AD=0.2262 AS=0.2262 PD=2.26 PS=2.26 NRD=0 NRS=0 m=1 r=1.47458 sa=295000 sb=295000 a=0.5133 p=2.92 mult=1 $X=395 $Y=1615 $D=89
.ENDS
***************************************
.SUBCKT ICV_1 1 2
** N=2 EP=2 IP=8 FDC=4
*.SEEDPROM
X0 1 2 1 2 sky130_fd_sc_hd__decap_3 $T=0 0 1 0 $X=-190 $Y=-2960
X1 1 2 1 2 sky130_fd_sc_hd__decap_3 $T=0 0 0 0 $X=-190 $Y=-240
.ENDS
***************************************
.SUBCKT ICV_2 1 2
** N=2 EP=2 IP=4 FDC=8
*.SEEDPROM
X0 1 2 ICV_1 $T=0 -5440 0 0 $X=-190 $Y=-8400
X1 1 2 ICV_1 $T=0 0 0 0 $X=-190 $Y=-2960
.ENDS
***************************************
.SUBCKT sky130_fd_sc_hd__fill_1
** N=4 EP=0 IP=0 FDC=0
*.SEEDPROM
*.CALIBRE ISOLATED NETS: VNB VPB VGND VPWR
.ENDS
***************************************
.SUBCKT sky130_fd_sc_hd__fill_2
** N=4 EP=0 IP=0 FDC=0
*.SEEDPROM
*.CALIBRE ISOLATED NETS: VNB VPB VGND VPWR
.ENDS
***************************************
.SUBCKT sky130_fd_sc_hd__decap_4 VNB VPB VGND VPWR
** N=20 EP=4 IP=0 FDC=2
*.SEEDPROM
M0 VGND VPWR VGND VNB nshort L=1.05 W=0.55 AD=0.143 AS=0.143 PD=1.62 PS=1.62 NRD=0 NRS=0 m=1 r=0.52381 sa=525000 sb=525000 a=0.5775 p=3.2 mult=1 $X=395 $Y=235 $D=9
M1 VPWR VGND VPWR VPB phighvt L=1.05 W=0.87 AD=0.2262 AS=0.2262 PD=2.26 PS=2.26 NRD=0 NRS=0 m=1 r=0.828571 sa=525000 sb=525000 a=0.9135 p=3.84 mult=1 $X=395 $Y=1615 $D=89
.ENDS
***************************************
.SUBCKT ICV_3 1 2
** N=2 EP=2 IP=8 FDC=2
*.SEEDPROM
X1 1 2 1 2 sky130_fd_sc_hd__decap_4 $T=0 0 0 0 $X=-190 $Y=-240
.ENDS
***************************************
.SUBCKT sky130_fd_sc_hd__decap_6 VNB VPB VGND VPWR
** N=22 EP=4 IP=0 FDC=2
*.SEEDPROM
M0 VGND VPWR VGND VNB nshort L=1.97 W=0.55 AD=0.143 AS=0.143 PD=1.62 PS=1.62 NRD=0 NRS=0 m=1 r=0.279188 sa=984999 sb=984999 a=1.0835 p=5.04 mult=1 $X=395 $Y=235 $D=9
M1 VPWR VGND VPWR VPB phighvt L=1.97 W=0.87 AD=0.2262 AS=0.2262 PD=2.26 PS=2.26 NRD=0 NRS=0 m=1 r=0.441624 sa=984999 sb=984999 a=1.7139 p=5.68 mult=1 $X=395 $Y=1615 $D=89
.ENDS
***************************************
.SUBCKT ICV_4 1 2
** N=2 EP=2 IP=8 FDC=2
*.SEEDPROM
X1 1 2 1 2 sky130_fd_sc_hd__decap_6 $T=0 0 0 0 $X=-190 $Y=-240
.ENDS
***************************************
.SUBCKT sky130_fd_sc_hd__decap_8 VNB VPB VGND VPWR
** N=24 EP=4 IP=0 FDC=2
*.SEEDPROM
M0 VGND VPWR VGND VNB nshort L=2.89 W=0.55 AD=0.143 AS=0.143 PD=1.62 PS=1.62 NRD=0 NRS=0 m=1 r=0.190311 sa=1.445e+06 sb=1.445e+06 a=1.5895 p=6.88 mult=1 $X=395 $Y=235 $D=9
M1 VPWR VGND VPWR VPB phighvt L=2.89 W=0.87 AD=0.2262 AS=0.2262 PD=2.26 PS=2.26 NRD=0 NRS=0 m=1 r=0.301038 sa=1.445e+06 sb=1.445e+06 a=2.5143 p=7.52 mult=1 $X=395 $Y=1615 $D=89
.ENDS
***************************************
.SUBCKT sky130_fd_sc_hd__decap_12 VNB VPB VGND VPWR
** N=26 EP=4 IP=0 FDC=2
*.SEEDPROM
M0 VGND VPWR VGND VNB nshort L=4.73 W=0.55 AD=0.143 AS=0.143 PD=1.62 PS=1.62 NRD=0 NRS=0 m=1 r=0.116279 sa=2.365e+06 sb=2.365e+06 a=2.6015 p=10.56 mult=1 $X=395 $Y=235 $D=9
M1 VPWR VGND VPWR VPB phighvt L=4.73 W=0.87 AD=0.2262 AS=0.2262 PD=2.26 PS=2.26 NRD=0 NRS=0 m=1 r=0.183932 sa=2.365e+06 sb=2.365e+06 a=4.1151 p=11.2 mult=1 $X=395 $Y=1615 $D=89
.ENDS
***************************************
.SUBCKT sky130_fd_sc_hd__clkbuf_8 VNB VPB A VPWR X VGND
** N=149 EP=6 IP=0 FDC=20
*.SEEDPROM
M0 7 A VGND VNB nshort L=0.15 W=0.42 AD=0.0588 AS=0.1113 PD=0.7 PS=1.37 NRD=0 NRS=0 m=1 r=2.8 sa=75000.2 sb=75004.1 a=0.063 p=1.14 mult=1 $X=400 $Y=235 $D=9
M1 VGND A 7 VNB nshort L=0.15 W=0.42 AD=0.0588 AS=0.0588 PD=0.7 PS=0.7 NRD=0 NRS=0 m=1 r=2.8 sa=75000.6 sb=75003.6 a=0.063 p=1.14 mult=1 $X=830 $Y=235 $D=9
M2 X 7 VGND VNB nshort L=0.15 W=0.42 AD=0.0588 AS=0.0588 PD=0.7 PS=0.7 NRD=0 NRS=0 m=1 r=2.8 sa=75001.1 sb=75003.2 a=0.063 p=1.14 mult=1 $X=1260 $Y=235 $D=9
M3 VGND 7 X VNB nshort L=0.15 W=0.42 AD=0.0588 AS=0.0588 PD=0.7 PS=0.7 NRD=0 NRS=0 m=1 r=2.8 sa=75001.5 sb=75002.8 a=0.063 p=1.14 mult=1 $X=1690 $Y=235 $D=9
M4 X 7 VGND VNB nshort L=0.15 W=0.42 AD=0.0588 AS=0.0588 PD=0.7 PS=0.7 NRD=0 NRS=0 m=1 r=2.8 sa=75001.9 sb=75002.3 a=0.063 p=1.14 mult=1 $X=2120 $Y=235 $D=9
M5 VGND 7 X VNB nshort L=0.15 W=0.42 AD=0.0588 AS=0.0588 PD=0.7 PS=0.7 NRD=0 NRS=0 m=1 r=2.8 sa=75002.3 sb=75001.9 a=0.063 p=1.14 mult=1 $X=2550 $Y=235 $D=9
M6 X 7 VGND VNB nshort L=0.15 W=0.42 AD=0.0588 AS=0.0588 PD=0.7 PS=0.7 NRD=0 NRS=0 m=1 r=2.8 sa=75002.8 sb=75001.5 a=0.063 p=1.14 mult=1 $X=2980 $Y=235 $D=9
M7 VGND 7 X VNB nshort L=0.15 W=0.42 AD=0.0588 AS=0.0588 PD=0.7 PS=0.7 NRD=0 NRS=0 m=1 r=2.8 sa=75003.2 sb=75001.1 a=0.063 p=1.14 mult=1 $X=3410 $Y=235 $D=9
M8 X 7 VGND VNB nshort L=0.15 W=0.42 AD=0.0588 AS=0.0588 PD=0.7 PS=0.7 NRD=0 NRS=0 m=1 r=2.8 sa=75003.6 sb=75000.6 a=0.063 p=1.14 mult=1 $X=3840 $Y=235 $D=9
M9 VGND 7 X VNB nshort L=0.15 W=0.42 AD=0.1134 AS=0.0588 PD=1.38 PS=0.7 NRD=1.428 NRS=0 m=1 r=2.8 sa=75004.1 sb=75000.2 a=0.063 p=1.14 mult=1 $X=4270 $Y=235 $D=9
M10 7 A VPWR VPB phighvt L=0.15 W=1 AD=0.14 AS=0.265 PD=1.28 PS=2.53 NRD=0 NRS=0 m=1 r=6.66667 sa=75000.2 sb=75004.1 a=0.15 p=2.3 mult=1 $X=400 $Y=1485 $D=89
M11 VPWR A 7 VPB phighvt L=0.15 W=1 AD=0.14 AS=0.14 PD=1.28 PS=1.28 NRD=0 NRS=0 m=1 r=6.66667 sa=75000.6 sb=75003.6 a=0.15 p=2.3 mult=1 $X=830 $Y=1485 $D=89
M12 X 7 VPWR VPB phighvt L=0.15 W=1 AD=0.14 AS=0.14 PD=1.28 PS=1.28 NRD=0 NRS=0 m=1 r=6.66667 sa=75001 sb=75003.2 a=0.15 p=2.3 mult=1 $X=1260 $Y=1485 $D=89
M13 VPWR 7 X VPB phighvt L=0.15 W=1 AD=0.14 AS=0.14 PD=1.28 PS=1.28 NRD=0 NRS=0 m=1 r=6.66667 sa=75001.5 sb=75002.8 a=0.15 p=2.3 mult=1 $X=1690 $Y=1485 $D=89
M14 X 7 VPWR VPB phighvt L=0.15 W=1 AD=0.14 AS=0.14 PD=1.28 PS=1.28 NRD=0 NRS=0 m=1 r=6.66667 sa=75001.9 sb=75002.3 a=0.15 p=2.3 mult=1 $X=2120 $Y=1485 $D=89
M15 VPWR 7 X VPB phighvt L=0.15 W=1 AD=0.14 AS=0.14 PD=1.28 PS=1.28 NRD=0 NRS=0 m=1 r=6.66667 sa=75002.3 sb=75001.9 a=0.15 p=2.3 mult=1 $X=2550 $Y=1485 $D=89
M16 X 7 VPWR VPB phighvt L=0.15 W=1 AD=0.14 AS=0.14 PD=1.28 PS=1.28 NRD=0 NRS=0 m=1 r=6.66667 sa=75002.8 sb=75001.5 a=0.15 p=2.3 mult=1 $X=2980 $Y=1485 $D=89
M17 VPWR 7 X VPB phighvt L=0.15 W=1 AD=0.14 AS=0.14 PD=1.28 PS=1.28 NRD=0 NRS=0 m=1 r=6.66667 sa=75003.2 sb=75001 a=0.15 p=2.3 mult=1 $X=3410 $Y=1485 $D=89
M18 X 7 VPWR VPB phighvt L=0.15 W=1 AD=0.14 AS=0.14 PD=1.28 PS=1.28 NRD=0 NRS=0 m=1 r=6.66667 sa=75003.6 sb=75000.6 a=0.15 p=2.3 mult=1 $X=3840 $Y=1485 $D=89
M19 VPWR 7 X VPB phighvt L=0.15 W=1 AD=0.265 AS=0.14 PD=2.53 PS=1.28 NRD=0 NRS=0 m=1 r=6.66667 sa=75004.1 sb=75000.2 a=0.15 p=2.3 mult=1 $X=4270 $Y=1485 $D=89
.ENDS
***************************************
.SUBCKT sky130_fd_sc_hd__ebufn_2 VNB VPB A TE_B VPWR Z VGND
** N=72 EP=7 IP=0 FDC=12
*.SEEDPROM
M0 VGND A 9 VNB nshort L=0.15 W=0.42 AD=0.07875 AS=0.1092 PD=0.795 PS=1.36 NRD=0 NRS=0 m=1 r=2.8 sa=75000.2 sb=75000.7 a=0.063 p=1.14 mult=1 $X=395 $Y=235 $D=9
M1 8 TE_B VGND VNB nshort L=0.15 W=0.42 AD=0.1092 AS=0.07875 PD=1.36 PS=0.795 NRD=0 NRS=28.56 m=1 r=2.8 sa=75000.7 sb=75000.2 a=0.063 p=1.14 mult=1 $X=920 $Y=235 $D=9
M2 VGND 8 11 VNB nshort L=0.15 W=0.65 AD=0.08775 AS=0.169 PD=0.92 PS=1.82 NRD=0 NRS=0 m=1 r=4.33333 sa=75000.2 sb=75001.6 a=0.0975 p=1.6 mult=1 $X=2220 $Y=235 $D=9
M3 11 8 VGND VNB nshort L=0.15 W=0.65 AD=0.125125 AS=0.08775 PD=1.035 PS=0.92 NRD=9.228 NRS=0 m=1 r=4.33333 sa=75000.6 sb=75001.1 a=0.0975 p=1.6 mult=1 $X=2640 $Y=235 $D=9
M4 Z 9 11 VNB nshort L=0.15 W=0.65 AD=0.08775 AS=0.125125 PD=0.92 PS=1.035 NRD=0 NRS=10.152 m=1 r=4.33333 sa=75001.1 sb=75000.6 a=0.0975 p=1.6 mult=1 $X=3175 $Y=235 $D=9
M5 11 9 Z VNB nshort L=0.15 W=0.65 AD=0.169 AS=0.08775 PD=1.82 PS=0.92 NRD=0 NRS=0 m=1 r=4.33333 sa=75001.6 sb=75000.2 a=0.0975 p=1.6 mult=1 $X=3595 $Y=235 $D=9
M6 VPWR A 9 VPB phighvt L=0.15 W=0.64 AD=0.12 AS=0.1664 PD=1.015 PS=1.8 NRD=15.3857 NRS=0 m=1 r=4.26667 sa=75000.2 sb=75000.7 a=0.096 p=1.58 mult=1 $X=395 $Y=1845 $D=89
M7 8 TE_B VPWR VPB phighvt L=0.15 W=0.64 AD=0.1664 AS=0.12 PD=1.8 PS=1.015 NRD=0 NRS=13.8491 m=1 r=4.26667 sa=75000.7 sb=75000.2 a=0.096 p=1.58 mult=1 $X=920 $Y=1845 $D=89
M8 VPWR TE_B 10 VPB phighvt L=0.15 W=0.94 AD=0.1269 AS=0.2444 PD=1.21 PS=2.4 NRD=0 NRS=0 m=1 r=6.26667 sa=75000.2 sb=75001.9 a=0.141 p=2.18 mult=1 $X=1860 $Y=1545 $D=89
M9 10 TE_B VPWR VPB phighvt L=0.15 W=0.94 AD=0.358799 AS=0.1269 PD=1.69103 PS=1.21 NRD=11.5245 NRS=0 m=1 r=6.26667 sa=75000.6 sb=75001.5 a=0.141 p=2.18 mult=1 $X=2280 $Y=1545 $D=89
M10 Z 9 10 VPB phighvt L=0.15 W=1 AD=0.135 AS=0.381701 PD=1.27 PS=1.79897 NRD=0 NRS=13.7703 m=1 r=6.66667 sa=75001.4 sb=75000.6 a=0.15 p=2.3 mult=1 $X=3175 $Y=1485 $D=89
M11 10 9 Z VPB phighvt L=0.15 W=1 AD=0.26 AS=0.135 PD=2.52 PS=1.27 NRD=0 NRS=0 m=1 r=6.66667 sa=75001.9 sb=75000.2 a=0.15 p=2.3 mult=1 $X=3595 $Y=1485 $D=89
.ENDS
***************************************
.SUBCKT sky130_fd_sc_hd__tapvpwrvgnd_1
** N=5 EP=0 IP=0 FDC=0
*.SEEDPROM
*.CALIBRE ISOLATED NETS: VGND VPWR
.ENDS
***************************************
.SUBCKT ICV_5 1 2
** N=2 EP=2 IP=6 FDC=2
*.SEEDPROM
X0 1 2 1 2 sky130_fd_sc_hd__decap_12 $T=460 0 0 0 $X=270 $Y=-240
.ENDS
***************************************
.SUBCKT ICV_6 1 2 3 4 5
** N=5 EP=5 IP=9 FDC=12
*.SEEDPROM
X0 1 2 3 4 2 5 1 sky130_fd_sc_hd__ebufn_2 $T=460 0 0 0 $X=270 $Y=-240
.ENDS
***************************************
.SUBCKT ICV_7
** N=2 EP=0 IP=6 FDC=0
*.SEEDPROM
.ENDS
***************************************
.SUBCKT ICV_8
** N=2 EP=0 IP=6 FDC=0
*.SEEDPROM
.ENDS
***************************************
.SUBCKT ICV_9 1 2
** N=2 EP=2 IP=8 FDC=4
*.SEEDPROM
X0 1 2 1 2 sky130_fd_sc_hd__decap_8 $T=5520 0 0 0 $X=5330 $Y=-240
X1 1 2 1 2 sky130_fd_sc_hd__decap_12 $T=0 0 0 0 $X=-190 $Y=-240
.ENDS
***************************************
.SUBCKT ICV_10 1 2
** N=2 EP=2 IP=6 FDC=2
*.SEEDPROM
X0 1 2 1 2 sky130_fd_sc_hd__decap_6 $T=0 0 0 0 $X=-190 $Y=-240
.ENDS
***************************************
.SUBCKT ICV_11 1 2
** N=2 EP=2 IP=8 FDC=4
*.SEEDPROM
X0 1 2 1 2 sky130_fd_sc_hd__decap_12 $T=0 0 0 0 $X=-190 $Y=-240
X1 1 2 1 2 sky130_fd_sc_hd__decap_12 $T=5520 0 0 0 $X=5330 $Y=-240
.ENDS
***************************************
.SUBCKT ICV_12 1 2
** N=2 EP=2 IP=6 FDC=6
*.SEEDPROM
X0 1 2 1 2 sky130_fd_sc_hd__decap_12 $T=11040 0 0 0 $X=10850 $Y=-240
X1 1 2 ICV_11 $T=0 0 0 0 $X=-190 $Y=-240
.ENDS
***************************************
.SUBCKT sky130_fd_sc_hd__dfxtp_1 VNB VPB CLK D VPWR Q VGND
** N=142 EP=7 IP=0 FDC=24
*.SEEDPROM
M0 VGND CLK 8 VNB nshort L=0.15 W=0.42 AD=0.0567 AS=0.1092 PD=0.69 PS=1.36 NRD=0 NRS=0 m=1 r=2.8 sa=75000.2 sb=75000.6 a=0.063 p=1.14 mult=1 $X=395 $Y=235 $D=9
M1 9 8 VGND VNB nshort L=0.15 W=0.42 AD=0.1092 AS=0.0567 PD=1.36 PS=0.69 NRD=0 NRS=0 m=1 r=2.8 sa=75000.6 sb=75000.2 a=0.063 p=1.14 mult=1 $X=815 $Y=235 $D=9
M2 14 D VGND VNB nshort L=0.15 W=0.42 AD=0.0875538 AS=0.1092 PD=0.893846 PS=1.36 NRD=0 NRS=0 m=1 r=2.8 sa=75000.2 sb=75003.3 a=0.063 p=1.14 mult=1 $X=1755 $Y=235 $D=9
M3 11 8 14 VNB nshort L=0.15 W=0.36 AD=0.0621 AS=0.0750462 PD=0.705 PS=0.766154 NRD=0 NRS=43.332 m=1 r=2.4 sa=75000.7 sb=75003.3 a=0.054 p=1.02 mult=1 $X=2315 $Y=235 $D=9
M4 17 9 11 VNB nshort L=0.15 W=0.36 AD=0.0642462 AS=0.0621 PD=0.706154 PS=0.705 NRD=41.148 NRS=23.328 m=1 r=2.4 sa=75001.2 sb=75002.8 a=0.054 p=1.02 mult=1 $X=2810 $Y=235 $D=9
M5 VGND 10 17 VNB nshort L=0.15 W=0.42 AD=0.0958472 AS=0.0749538 PD=0.859811 PS=0.823846 NRD=0 NRS=35.268 m=1 r=2.8 sa=75001.5 sb=75002.1 a=0.063 p=1.14 mult=1 $X=3305 $Y=235 $D=9
M6 10 11 VGND VNB nshort L=0.15 W=0.64 AD=0.126592 AS=0.146053 PD=1.2736 PS=1.31019 NRD=0 NRS=30.936 m=1 r=4.26667 sa=75001.4 sb=75001 a=0.096 p=1.58 mult=1 $X=3900 $Y=235 $D=9
M7 13 9 10 VNB nshort L=0.15 W=0.36 AD=0.0684 AS=0.071208 PD=0.74 PS=0.7164 NRD=3.324 NRS=24.996 m=1 r=2.4 sa=75002.8 sb=75001.2 a=0.054 p=1.02 mult=1 $X=4405 $Y=235 $D=9
M8 18 8 13 VNB nshort L=0.15 W=0.36 AD=0.0609231 AS=0.0684 PD=0.687692 PS=0.74 NRD=38.076 NRS=30 m=1 r=2.4 sa=75003.4 sb=75000.7 a=0.054 p=1.02 mult=1 $X=4935 $Y=235 $D=9
M9 VGND 12 18 VNB nshort L=0.15 W=0.42 AD=0.1092 AS=0.0710769 PD=1.36 PS=0.802308 NRD=0 NRS=32.628 m=1 r=2.8 sa=75003.3 sb=75000.2 a=0.063 p=1.14 mult=1 $X=5410 $Y=235 $D=9
M10 VGND 13 12 VNB nshort L=0.15 W=0.65 AD=0.08775 AS=0.169 PD=0.92 PS=1.82 NRD=0 NRS=0 m=1 r=4.33333 sa=75000.2 sb=75000.6 a=0.0975 p=1.6 mult=1 $X=6355 $Y=235 $D=9
M11 Q 12 VGND VNB nshort L=0.15 W=0.65 AD=0.169 AS=0.08775 PD=1.82 PS=0.92 NRD=0 NRS=0 m=1 r=4.33333 sa=75000.6 sb=75000.2 a=0.0975 p=1.6 mult=1 $X=6775 $Y=235 $D=9
M12 VPWR CLK 8 VPB phighvt L=0.15 W=0.64 AD=0.0864 AS=0.1664 PD=0.91 PS=1.8 NRD=0 NRS=0 m=1 r=4.26667 sa=75000.2 sb=75000.6 a=0.096 p=1.58 mult=1 $X=395 $Y=1815 $D=89
M13 9 8 VPWR VPB phighvt L=0.15 W=0.64 AD=0.1664 AS=0.0864 PD=1.8 PS=0.91 NRD=0 NRS=0 m=1 r=4.26667 sa=75000.6 sb=75000.2 a=0.096 p=1.58 mult=1 $X=815 $Y=1815 $D=89
M14 14 D VPWR VPB phighvt L=0.15 W=0.42 AD=0.05775 AS=0.1092 PD=0.695 PS=1.36 NRD=0 NRS=0 m=1 r=2.8 sa=75000.2 sb=75003.7 a=0.063 p=1.14 mult=1 $X=1755 $Y=2065 $D=89
M15 11 9 14 VPB phighvt L=0.15 W=0.42 AD=0.06825 AS=0.05775 PD=0.745 PS=0.695 NRD=14.0658 NRS=0 m=1 r=2.8 sa=75000.6 sb=75003.3 a=0.063 p=1.14 mult=1 $X=2180 $Y=2065 $D=89
M16 15 8 11 VPB phighvt L=0.15 W=0.42 AD=0.07665 AS=0.06825 PD=0.785 PS=0.745 NRD=59.7895 NRS=7.0329 m=1 r=2.8 sa=75001.1 sb=75002.8 a=0.063 p=1.14 mult=1 $X=2655 $Y=2065 $D=89
M17 VPWR 10 15 VPB phighvt L=0.15 W=0.42 AD=0.128423 AS=0.07665 PD=0.904615 PS=0.785 NRD=111.384 NRS=59.7895 m=1 r=2.8 sa=75001.6 sb=75002.3 a=0.063 p=1.14 mult=1 $X=3170 $Y=2065 $D=89
M18 10 11 VPWR VPB phighvt L=0.15 W=0.75 AD=0.140385 AS=0.229327 PD=1.37821 PS=1.61538 NRD=0 NRS=0 m=1 r=5 sa=75001.4 sb=75001 a=0.1125 p=1.8 mult=1 $X=3830 $Y=1735 $D=89
M19 13 8 10 VPB phighvt L=0.15 W=0.42 AD=0.0567 AS=0.0786154 PD=0.69 PS=0.771795 NRD=0 NRS=23.443 m=1 r=2.8 sa=75002.7 sb=75001.2 a=0.063 p=1.14 mult=1 $X=4305 $Y=2065 $D=89
M20 16 9 13 VPB phighvt L=0.15 W=0.42 AD=0.0882 AS=0.0567 PD=0.84 PS=0.69 NRD=72.693 NRS=0 m=1 r=2.8 sa=75003.2 sb=75000.8 a=0.063 p=1.14 mult=1 $X=4725 $Y=2065 $D=89
M21 VPWR 12 16 VPB phighvt L=0.15 W=0.42 AD=0.1113 AS=0.0882 PD=1.37 PS=0.84 NRD=0 NRS=72.693 m=1 r=2.8 sa=75003.7 sb=75000.2 a=0.063 p=1.14 mult=1 $X=5295 $Y=2065 $D=89
M22 VPWR 13 12 VPB phighvt L=0.15 W=1 AD=0.135 AS=0.27 PD=1.27 PS=2.54 NRD=0 NRS=0.9653 m=1 r=6.66667 sa=75000.2 sb=75000.6 a=0.15 p=2.3 mult=1 $X=6345 $Y=1485 $D=89
M23 Q 12 VPWR VPB phighvt L=0.15 W=1 AD=0.26 AS=0.135 PD=2.52 PS=1.27 NRD=0 NRS=0 m=1 r=6.66667 sa=75000.6 sb=75000.2 a=0.15 p=2.3 mult=1 $X=6765 $Y=1485 $D=89
.ENDS
***************************************
.SUBCKT ICV_13 1 2 3 4 5 6 7 8
** N=8 EP=8 IP=14 FDC=36
*.SEEDPROM
X0 1 2 3 4 2 5 1 sky130_fd_sc_hd__ebufn_2 $T=7360 0 0 0 $X=7170 $Y=-240
X1 1 2 6 7 2 8 1 sky130_fd_sc_hd__dfxtp_1 $T=0 0 0 0 $X=-190 $Y=-240
.ENDS
***************************************
.SUBCKT ICV_14 1 2 3 4 5 6 7 8
** N=8 EP=8 IP=12 FDC=36
*.SEEDPROM
X1 1 2 6 7 8 3 4 5 ICV_13 $T=920 0 0 0 $X=730 $Y=-240
.ENDS
***************************************
.SUBCKT ICV_15 1 2 3 4 5 6 7 8 9 10 11
** N=11 EP=11 IP=15 FDC=48
*.SEEDPROM
X0 1 2 3 4 2 5 1 sky130_fd_sc_hd__ebufn_2 $T=11500 0 0 0 $X=11310 $Y=-240
X1 1 2 9 10 11 6 7 8 ICV_13 $T=0 0 0 0 $X=-190 $Y=-240
.ENDS
***************************************
.SUBCKT ICV_16 1 2 3 4 5 6 7 8
** N=8 EP=8 IP=12 FDC=36
*.SEEDPROM
X1 1 2 6 7 8 3 4 5 ICV_13 $T=460 0 0 0 $X=270 $Y=-240
.ENDS
***************************************
.SUBCKT ICV_17 1 2 3 4 5 6 7 8
** N=8 EP=8 IP=12 FDC=38
*.SEEDPROM
X0 1 2 1 2 sky130_fd_sc_hd__decap_3 $T=0 0 0 0 $X=-190 $Y=-240
X1 1 2 6 7 8 3 4 5 ICV_13 $T=1380 0 0 0 $X=1190 $Y=-240
.ENDS
***************************************
.SUBCKT ICV_18
** N=2 EP=0 IP=6 FDC=0
*.SEEDPROM
.ENDS
***************************************
.SUBCKT ICV_19 1 2 3 4 5 6 7 8
** N=8 EP=8 IP=12 FDC=38
*.SEEDPROM
X0 1 2 1 2 sky130_fd_sc_hd__decap_4 $T=0 0 0 0 $X=-190 $Y=-240
X1 1 2 6 7 8 3 4 5 ICV_13 $T=1840 0 0 0 $X=1650 $Y=-240
.ENDS
***************************************
.SUBCKT ICV_20 1 2 3 4 5
** N=5 EP=5 IP=11 FDC=24
*.SEEDPROM
X1 1 2 3 4 2 5 1 sky130_fd_sc_hd__dfxtp_1 $T=460 0 0 0 $X=270 $Y=-240
.ENDS
***************************************
.SUBCKT ICV_21 1 2 3 4 5
** N=5 EP=5 IP=9 FDC=26
*.SEEDPROM
X0 1 2 1 2 sky130_fd_sc_hd__decap_6 $T=0 0 0 0 $X=-190 $Y=-240
X1 1 2 3 4 5 ICV_20 $T=2760 0 0 0 $X=2570 $Y=-240
.ENDS
***************************************
.SUBCKT ICV_22 1 2 3 4 5 6 7 8
** N=8 EP=8 IP=10 FDC=38
*.SEEDPROM
X0 1 2 ICV_3 $T=0 0 0 0 $X=-190 $Y=-240
X1 1 2 6 7 8 3 4 5 ICV_13 $T=2300 0 0 0 $X=2110 $Y=-240
.ENDS
***************************************
.SUBCKT ICV_23 1 2
** N=2 EP=2 IP=6 FDC=2
*.SEEDPROM
X0 1 2 1 2 sky130_fd_sc_hd__decap_3 $T=0 0 0 0 $X=-190 $Y=-240
.ENDS
***************************************
.SUBCKT ICV_24 1 2
** N=2 EP=2 IP=6 FDC=2
*.SEEDPROM
X0 1 2 1 2 sky130_fd_sc_hd__decap_4 $T=0 0 0 0 $X=-190 $Y=-240
.ENDS
***************************************
.SUBCKT sky130_fd_sc_hd__inv_1 VNB VPB A VPWR Y VGND
** N=25 EP=6 IP=0 FDC=2
*.SEEDPROM
M0 Y A VGND VNB nshort L=0.15 W=0.65 AD=0.169 AS=0.169 PD=1.82 PS=1.82 NRD=0 NRS=0 m=1 r=4.33333 sa=75000.2 sb=75000.2 a=0.0975 p=1.6 mult=1 $X=600 $Y=235 $D=9
M1 Y A VPWR VPB phighvt L=0.15 W=1 AD=0.26 AS=0.26 PD=2.52 PS=2.52 NRD=0 NRS=0 m=1 r=6.66667 sa=75000.2 sb=75000.2 a=0.15 p=2.3 mult=1 $X=600 $Y=1485 $D=89
.ENDS
***************************************
.SUBCKT ICV_25 1 2
** N=2 EP=2 IP=6 FDC=2
*.SEEDPROM
X0 1 2 1 2 sky130_fd_sc_hd__decap_6 $T=0 0 0 0 $X=-190 $Y=-240
.ENDS
***************************************
.SUBCKT ICV_26 1 2 3 4 5
** N=5 EP=5 IP=11 FDC=12
*.SEEDPROM
X1 1 2 3 4 2 5 1 sky130_fd_sc_hd__ebufn_2 $T=460 0 0 0 $X=270 $Y=-240
.ENDS
***************************************
.SUBCKT ICV_27 1 2 3 4 5 6 7
** N=7 EP=7 IP=13 FDC=26
*.SEEDPROM
X0 1 2 3 4 2 5 1 sky130_fd_sc_hd__dfxtp_1 $T=0 0 0 0 $X=-190 $Y=-240
X1 1 2 6 2 7 1 sky130_fd_sc_hd__inv_1 $T=7360 0 0 0 $X=7170 $Y=-240
.ENDS
***************************************
.SUBCKT ICV_28 1 2 3 4 5
** N=5 EP=5 IP=11 FDC=26
*.SEEDPROM
X0 1 2 1 2 sky130_fd_sc_hd__decap_4 $T=0 0 0 0 $X=-190 $Y=-240
X1 1 2 3 4 2 5 1 sky130_fd_sc_hd__dfxtp_1 $T=1840 0 0 0 $X=1650 $Y=-240
.ENDS
***************************************
.SUBCKT ICV_29 1 2 3 4 5
** N=5 EP=5 IP=9 FDC=26
*.SEEDPROM
X0 1 2 1 2 sky130_fd_sc_hd__decap_4 $T=0 0 0 0 $X=-190 $Y=-240
X1 1 2 3 4 5 ICV_20 $T=1840 0 0 0 $X=1650 $Y=-240
.ENDS
***************************************
.SUBCKT ICV_30 1 2 3 4 5 6 7 8
** N=8 EP=8 IP=14 FDC=24
*.SEEDPROM
X0 1 2 3 4 2 5 1 sky130_fd_sc_hd__ebufn_2 $T=0 0 0 0 $X=-190 $Y=-240
X1 1 2 6 7 2 8 1 sky130_fd_sc_hd__ebufn_2 $T=4140 0 0 0 $X=3950 $Y=-240
.ENDS
***************************************
.SUBCKT sky130_fd_sc_hd__and2_1 VNB VPB A B VPWR X VGND
** N=37 EP=7 IP=0 FDC=6
*.SEEDPROM
M0 9 A 8 VNB nshort L=0.15 W=0.42 AD=0.0567 AS=0.1176 PD=0.69 PS=1.4 NRD=22.848 NRS=0 m=1 r=2.8 sa=75000.2 sb=75001.2 a=0.063 p=1.14 mult=1 $X=575 $Y=375 $D=9
M1 VGND B 9 VNB nshort L=0.15 W=0.42 AD=0.0877682 AS=0.0567 PD=0.816449 PS=0.69 NRD=34.284 NRS=22.848 m=1 r=2.8 sa=75000.6 sb=75000.7 a=0.063 p=1.14 mult=1 $X=995 $Y=375 $D=9
M2 X 8 VGND VNB nshort L=0.15 W=0.65 AD=0.182 AS=0.135832 PD=1.86 PS=1.26355 NRD=0 NRS=0 m=1 r=4.33333 sa=75000.8 sb=75000.2 a=0.0975 p=1.6 mult=1 $X=1535 $Y=235 $D=9
M3 8 A VPWR VPB phighvt L=0.15 W=0.42 AD=0.0567 AS=0.1176 PD=0.69 PS=1.4 NRD=0 NRS=0 m=1 r=2.8 sa=75000.2 sb=75001.4 a=0.063 p=1.14 mult=1 $X=575 $Y=1855 $D=89
M4 VPWR B 8 VPB phighvt L=0.15 W=0.42 AD=0.0985225 AS=0.0567 PD=0.822254 PS=0.69 NRD=55.1009 NRS=0 m=1 r=2.8 sa=75000.6 sb=75000.9 a=0.063 p=1.14 mult=1 $X=995 $Y=1855 $D=89
M5 X 8 VPWR VPB phighvt L=0.15 W=1 AD=0.475 AS=0.234577 PD=2.95 PS=1.95775 NRD=18.715 NRS=0 m=1 r=6.66667 sa=75000.6 sb=75000.4 a=0.15 p=2.3 mult=1 $X=1535 $Y=1485 $D=89
.ENDS
***************************************
.SUBCKT ICV_31 1 2
** N=2 EP=2 IP=4 FDC=2
*.SEEDPROM
X0 1 2 ICV_3 $T=0 0 0 0 $X=-190 $Y=-240
.ENDS
***************************************
.SUBCKT sky130_fd_sc_hd__dlclkp_1 VNB VPB CLK GATE VPWR GCLK VGND
** N=111 EP=7 IP=0 FDC=20
*.SEEDPROM
M0 VGND CLK 9 VNB nshort L=0.15 W=0.42 AD=0.0567 AS=0.1092 PD=0.69 PS=1.36 NRD=0 NRS=0 m=1 r=2.8 sa=75000.2 sb=75000.6 a=0.063 p=1.14 mult=1 $X=395 $Y=235 $D=9
M1 8 9 VGND VNB nshort L=0.15 W=0.42 AD=0.1092 AS=0.0567 PD=1.36 PS=0.69 NRD=0 NRS=0 m=1 r=2.8 sa=75000.6 sb=75000.2 a=0.063 p=1.14 mult=1 $X=815 $Y=235 $D=9
M2 15 GATE VGND VNB nshort L=0.15 W=0.42 AD=0.117125 AS=0.1281 PD=1.085 PS=1.45 NRD=63.96 NRS=11.424 m=1 r=2.8 sa=75000.2 sb=75000.6 a=0.063 p=1.14 mult=1 $X=1830 $Y=595 $D=9
M3 11 9 15 VNB nshort L=0.15 W=0.42 AD=0.123615 AS=0.117125 PD=1.13037 PS=1.085 NRD=81.42 NRS=63.96 m=1 r=2.8 sa=75000.4 sb=75001.4 a=0.063 p=1.14 mult=1 $X=2380 $Y=330 $D=9
M4 16 8 11 VNB nshort L=0.15 W=0.39 AD=0.0646389 AS=0.114785 PD=0.717407 PS=1.04963 NRD=34.068 NRS=3.072 m=1 r=2.6 sa=75000.9 sb=75001.2 a=0.0585 p=1.08 mult=1 $X=3105 $Y=235 $D=9
M5 VGND 10 16 VNB nshort L=0.15 W=0.42 AD=0.0927336 AS=0.0696111 PD=0.816449 PS=0.772593 NRD=32.856 NRS=31.632 m=1 r=2.8 sa=75001.2 sb=75000.7 a=0.063 p=1.14 mult=1 $X=3580 $Y=235 $D=9
M6 10 11 VGND VNB nshort L=0.15 W=0.65 AD=0.169 AS=0.143516 PD=1.82 PS=1.26355 NRD=0 NRS=0 m=1 r=4.33333 sa=75001.2 sb=75000.2 a=0.0975 p=1.6 mult=1 $X=4120 $Y=235 $D=9
M7 17 10 12 VNB nshort L=0.15 W=0.42 AD=0.0441 AS=0.1092 PD=0.63 PS=1.36 NRD=14.28 NRS=0 m=1 r=2.8 sa=75000.2 sb=75001 a=0.063 p=1.14 mult=1 $X=5060 $Y=235 $D=9
M8 VGND CLK 17 VNB nshort L=0.15 W=0.42 AD=0.0761495 AS=0.0441 PD=0.765421 PS=0.63 NRD=12.852 NRS=14.28 m=1 r=2.8 sa=75000.5 sb=75000.7 a=0.063 p=1.14 mult=1 $X=5420 $Y=235 $D=9
M9 GCLK 12 VGND VNB nshort L=0.15 W=0.65 AD=0.169 AS=0.11785 PD=1.82 PS=1.18458 NRD=0 NRS=0 m=1 r=4.33333 sa=75000.7 sb=75000.2 a=0.0975 p=1.6 mult=1 $X=5895 $Y=235 $D=9
M10 VPWR CLK 9 VPB phighvt L=0.15 W=0.64 AD=0.0864 AS=0.1664 PD=0.91 PS=1.8 NRD=0 NRS=0 m=1 r=4.26667 sa=75000.2 sb=75000.6 a=0.096 p=1.58 mult=1 $X=395 $Y=1815 $D=89
M11 8 9 VPWR VPB phighvt L=0.15 W=0.64 AD=0.1664 AS=0.0864 PD=1.8 PS=0.91 NRD=0 NRS=0 m=1 r=4.26667 sa=75000.6 sb=75000.2 a=0.096 p=1.58 mult=1 $X=815 $Y=1815 $D=89
M12 13 GATE VPWR VPB phighvt L=0.15 W=0.64 AD=0.115623 AS=0.1664 PD=1.16528 PS=1.8 NRD=38.6711 NRS=0 m=1 r=4.26667 sa=75000.2 sb=75001.1 a=0.096 p=1.58 mult=1 $X=1755 $Y=1845 $D=89
M13 11 8 13 VPB phighvt L=0.15 W=0.42 AD=0.0987 AS=0.0758774 PD=0.89 PS=0.764717 NRD=56.2829 NRS=58.9227 m=1 r=2.8 sa=75000.7 sb=75001.2 a=0.063 p=1.14 mult=1 $X=2230 $Y=2065 $D=89
M14 14 9 11 VPB phighvt L=0.15 W=0.42 AD=0.0441 AS=0.0987 PD=0.63 PS=0.89 NRD=23.443 NRS=32.8202 m=1 r=2.8 sa=75001.3 sb=75000.5 a=0.063 p=1.14 mult=1 $X=2850 $Y=2065 $D=89
M15 VPWR 10 14 VPB phighvt L=0.15 W=0.42 AD=0.1092 AS=0.0441 PD=1.36 PS=0.63 NRD=0 NRS=23.443 m=1 r=2.8 sa=75001.6 sb=75000.2 a=0.063 p=1.14 mult=1 $X=3210 $Y=2065 $D=89
M16 VPWR 11 10 VPB phighvt L=0.15 W=1 AD=0.181707 AS=0.27 PD=1.61585 PS=2.54 NRD=1.9503 NRS=0 m=1 r=6.66667 sa=75000.2 sb=75001.3 a=0.15 p=2.3 mult=1 $X=4160 $Y=1485 $D=89