* SPICE NETLIST
***************************************

.SUBCKT MN g s d b
.ENDS
***************************************
.SUBCKT MP g s d b
.ENDS
***************************************
.SUBCKT condiode pin0 pin1
.ENDS
***************************************
.SUBCKT condiodeHvPsub pin0 pin1
.ENDS
***************************************
.SUBCKT sky130_fd_pr__nfet_g5v0d16v0 pin0 pin1 pin2 pin3
.ENDS
***************************************
.SUBCKT sky130_fd_pr__nfet_20v0 pin0 pin1 pin2 pin3
.ENDS
***************************************
.SUBCKT sky130_fd_pr__nfet_20v0_nvt pin0 pin1 pin2 pin3
.ENDS
***************************************
.SUBCKT sky130_fd_pr__nfet_20v0_iso pin0 pin1 pin2 pin3 pin4
.ENDS
***************************************
.SUBCKT sky130_fd_pr__nfet_20v0_nvt_iso pin0 pin1 pin2 pin3 pin4
.ENDS
***************************************
.SUBCKT sky130_fd_pr__pfet_g5v0d16v0 pin0 pin1 pin2 pin3
.ENDS
***************************************
.SUBCKT sky130_fd_pr__pfet_20v0 pin0 pin1 pin2 pin3
.ENDS
***************************************
.SUBCKT sky130_fd_pr__cap_var_lvt pin0 pin1 pin2
.ENDS
***************************************
.SUBCKT sky130_fd_pr__cap_var_hvt pin0 pin1 pin2
.ENDS
***************************************
.SUBCKT sky130_fd_pr__cap_var pin0 pin1 pin2
.ENDS
***************************************
.SUBCKT Dpar d0 d1
.ENDS
***************************************
.SUBCKT sky130_fd_pr__cap_vpp_08p6x07p8_l1m1m2_noshield_o1 pin0 pin1 pin2
.ENDS
***************************************
.SUBCKT sky130_fd_pr__cap_vpp_04p4x04p6_l1m1m2_noshield_o1 pin0 pin1 pin2
.ENDS
***************************************
.SUBCKT sky130_fd_pr__cap_vpp_04p4x04p6_m1m2_noshield_o1nhv pin0 pin1 pin2
.ENDS
***************************************
.SUBCKT sky130_fd_pr__cap_vpp_04p4x04p6_m1m2_noshield_o1phv pin0 pin1 pin2
.ENDS
***************************************
.SUBCKT sky130_fd_pr__cap_vpp_02p9x06p1_m1m2m3m4_shieldl1_fingercap2 pin0 pin1 pin2
.ENDS
***************************************
.SUBCKT sky130_fd_pr__cap_vpp_05p9x05p9_m1m2m3m4_shieldl1_wafflecap pin0 pin1 pin2
.ENDS
***************************************
.SUBCKT sky130_fd_pr__cap_vpp_11p3x11p3_m1m2m3m4_shieldl1_wafflecap pin0 pin1 pin2
.ENDS
***************************************
.SUBCKT sky130_fd_pr__cap_vpp_02p7x41p1_m1m2m3m4_shieldl1_fingercap pin0 pin1 pin2
.ENDS
***************************************
.SUBCKT sky130_fd_pr__cap_vpp_02p7x21p1_m1m2m3m4_shieldl1_fingercap pin0 pin1 pin2
.ENDS
***************************************
.SUBCKT sky130_fd_pr__cap_vpp_02p7x11p1_m1m2m3m4_shieldl1_fingercap pin0 pin1 pin2
.ENDS
***************************************
.SUBCKT sky130_fd_pr__cap_vpp_02p7x06p1_m1m2m3m4_shieldl1_fingercap pin0 pin1 pin2
.ENDS
***************************************
.SUBCKT sky130_fd_pr__cap_vpp_55p8x23p1_pol1m1m2m3m4m5_noshield_m5pullin pin0 pin1 pin2
.ENDS
***************************************
.SUBCKT sky130_fd_pr__cap_vpp_55p8x23p1_pol1m1m2m3m4m5_noshield pin0 pin1 pin2
.ENDS
***************************************
.SUBCKT sky130_fd_pr__cap_vpp_55p8x11p7_pol1m1m2m3m4m5_noshield_m5pullin pin0 pin1 pin2
.ENDS
***************************************
.SUBCKT sky130_fd_pr__cap_vpp_55p8x11p7_pol1m1m2m3m4m5_noshield pin0 pin1 pin2
.ENDS
***************************************
.SUBCKT sky130_fd_pr__cap_vpp_44p7x23p1_pol1m1m2m3m4m5_noshield pin0 pin1 pin2
.ENDS
***************************************
.SUBCKT sky130_fd_pr__cap_vpp_44p7x11p7_pol1m1m2m3m4m5_noshield pin0 pin1 pin2
.ENDS
***************************************
.SUBCKT sky130_fd_pr__cap_vpp_33p6x23p1_pol1m1m2m3m4m5_noshield pin0 pin1 pin2
.ENDS
***************************************
.SUBCKT sky130_fd_pr__cap_vpp_33p6x11p7_pol1m1m2m3m4m5_noshield pin0 pin1 pin2
.ENDS
***************************************
.SUBCKT sky130_fd_pr__cap_vpp_22p5x23p1_pol1m1m2m3m4m5_noshield pin0 pin1 pin2
.ENDS
***************************************
.SUBCKT sky130_fd_pr__cap_vpp_22p5x11p7_pol1m1m2m3m4m5_noshield pin0 pin1 pin2
.ENDS
***************************************
.SUBCKT sky130_fd_pr__cap_vpp_11p5x23p1_pol1m1m2m3m4m5_noshield pin0 pin1 pin2
.ENDS
***************************************
.SUBCKT sky130_fd_pr__cap_vpp_11p5x11p7_pol1m1m2m3m4m5_noshield pin0 pin1 pin2
.ENDS
***************************************
.SUBCKT sky130_fd_pr__cap_vpp_11p3x11p8_l1m1m2m3m4_shieldm5_nhv pin0 pin1 pin2 pin3
.ENDS
***************************************
.SUBCKT sky130_fd_pr__cap_vpp_11p5x11p7_l1m1m2m3m4_shieldpom5_x pin0 pin1 pin2 pin3
.ENDS
***************************************
.SUBCKT sky130_fd_pr__cap_vpp_04p4x04p6_m1m2m3_shieldl1m5_floatm4 pin0 pin1 pin2 pin3
.ENDS
***************************************
.SUBCKT sky130_fd_pr__cap_vpp_11p5x11p7_m1m2m3_shieldl1m5_floatm4 pin0 pin1 pin2 pin3
.ENDS
***************************************
.SUBCKT sky130_fd_pr__cap_vpp_08p6x07p8_m1m2m3_shieldl1m5_floatm4 pin0 pin1 pin2 pin3
.ENDS
***************************************
.SUBCKT sky130_fd_pr__cap_vpp_11p5x11p7_m1m2m3m4_shieldl1m5 pin0 pin1 pin2 pin3
.ENDS
***************************************
.SUBCKT sky130_fd_pr__cap_vpp_11p5x11p7_l1m1m2m3m4_shieldpom5 pin0 pin1 pin2 pin3
.ENDS
***************************************
.SUBCKT sky130_fd_pr__cap_vpp_11p5x11p7_l1m1m2m3m4_shieldm5 pin0 pin1 pin2 pin3
.ENDS
***************************************
.SUBCKT sky130_fd_pr__cap_vpp_06p8x06p1_m1m2m3_shieldl1m4 pin0 pin1 pin2 pin3
.ENDS
***************************************
.SUBCKT sky130_fd_pr__cap_vpp_06p8x06p1_l1m1m2m3_shieldpom4 pin0 pin1 pin2 pin3
.ENDS
***************************************
.SUBCKT sky130_fd_pr__cap_vpp_11p5x11p7_l1m1m2m3_shieldpom4 pin0 pin1 pin2 pin3
.ENDS
***************************************
.SUBCKT sky130_fd_pr__cap_vpp_11p5x11p7_l1m1m2m3_shieldm4 pin0 pin1 pin2 pin3
.ENDS
***************************************
.SUBCKT sky130_fd_pr__cap_vpp_01p8x01p8_m1m2_noshield pin0 pin1 pin2
.ENDS
***************************************
.SUBCKT sky130_fd_pr__cap_vpp_04p4x04p6_m1m2m3_shieldl1 pin0 pin1 pin2
.ENDS
***************************************
.SUBCKT sky130_fd_pr__cap_vpp_08p6x07p8_m1m2m3_shieldl1 pin0 pin1 pin2
.ENDS
***************************************
.SUBCKT sky130_fd_pr__cap_vpp_11p5x11p7_m1m2m3_shieldl1 pin0 pin1 pin2
.ENDS
***************************************
.SUBCKT sky130_fd_pr__cap_vpp_11p5x11p7_l1m1m2_shieldpom3 c0 c1 b term4
.ENDS
***************************************
.SUBCKT sky130_fd_pr__cap_vpp_08p6x07p8_l1m1m2_shieldpo_floatm3 c0 c1 b term4
.ENDS
***************************************
.SUBCKT sky130_fd_pr__cap_vpp_04p4x04p6_l1m1m2_shieldpo_floatm3 c0 c1 b term4
.ENDS
***************************************
.SUBCKT sky130_fd_pr__cap_vpp_03p9x03p9_m1m2_shieldl1_floatm3 c0 c1 b term4
.ENDS
***************************************
.SUBCKT sky130_fd_pr__cap_vpp_11p5x11p7_m1m2m3m4_shieldm5 pin0 pin1 pin2 pin3
.ENDS
***************************************
.SUBCKT sky130_fd_pr__cap_vpp_11p5x11p7_m1m4_noshield pin0 pin1 pin2
.ENDS
***************************************
.SUBCKT sky130_fd_pr__cap_vpp_11p5x11p7_m1m2_noshield pin0 pin1 pin2
.ENDS
***************************************
.SUBCKT sky130_fd_pr__cap_vpp_04p4x04p6_m1m2_noshield pin0 pin1 pin2
.ENDS
***************************************
.SUBCKT sky130_fd_pr__cap_vpp_02p4x04p6_m1m2_noshield pin0 pin1 pin2
.ENDS
***************************************
.SUBCKT sky130_fd_pr__cap_vpp_04p4x04p6_m1m2_noshield_o2 pin0 pin1 pin2
.ENDS
***************************************
.SUBCKT sky130_fd_pr__cap_vpp_08p6x07p8_m1m2_noshield pin0 pin1 pin2
.ENDS
***************************************
.SUBCKT balun pin0 pin1 pin2 pin3 pin4 pin5
.ENDS
***************************************
.SUBCKT sky130_fd_pr__ind_04 pin0 pin1 pin2 pin3
.ENDS
***************************************
.SUBCKT sky130_fd_pr__res_high_po_0p35 POS NEG SUB
.ENDS
***************************************
.SUBCKT sky130_fd_pr__res_xhigh_po_0p35 POS NEG SUB
.ENDS
***************************************
.SUBCKT sky130_fd_pr__res_high_po_0p69 POS NEG SUB
.ENDS
***************************************
.SUBCKT sky130_fd_pr__res_xhigh_po_0p69 POS NEG SUB
.ENDS
***************************************
.SUBCKT sky130_fd_pr__res_high_po_1p41 POS NEG SUB
.ENDS
***************************************
.SUBCKT sky130_fd_pr__res_xhigh_po_1p41 POS NEG SUB
.ENDS
***************************************
.SUBCKT sky130_fd_pr__res_high_po_2p85 POS NEG SUB
.ENDS
***************************************
.SUBCKT sky130_fd_pr__res_xhigh_po_2p85 POS NEG SUB
.ENDS
***************************************
.SUBCKT sky130_fd_pr__res_high_po_5p73 POS NEG SUB
.ENDS
***************************************
.SUBCKT sky130_fd_pr__res_xhigh_po_5p73 POS NEG SUB
.ENDS
***************************************
.SUBCKT Probe probe conductor
.ENDS
***************************************
.SUBCKT sky130_fd_sc_hd__decap_3 VNB VPB VGND VPWR
**
*.SEEDPROM
XM0 VGND VPWR VGND VNB sky130_fd_pr__nfet_01v8 L=0.59 W=0.55 AD=0.143 AS=0.143 PD=1.62 PS=1.62 NRD=0 NRS=0 m=1 sa=295000 sb=295000 a=0.3245 p=2.28
XM1 VPWR VGND VPWR VPB sky130_fd_pr__pfet_01v8_hvt L=0.59 W=0.87 AD=0.2262 AS=0.2262 PD=2.26 PS=2.26 NRD=0 NRS=0 m=1 sa=295000 sb=295000 a=0.5133 p=2.92
.ENDS
***************************************
.SUBCKT ICV_1 1 2
**
*.SEEDPROM
X0 1 2 1 2 sky130_fd_sc_hd__decap_3
X1 1 2 1 2 sky130_fd_sc_hd__decap_3
.ENDS
***************************************
.SUBCKT ICV_2 1 2
**
*.SEEDPROM
X0 1 2 ICV_1
X1 1 2 ICV_1
.ENDS
***************************************
.SUBCKT sky130_fd_sc_hd__fill_1
**
*.SEEDPROM
*.CALIBRE ISOLATED NETS: VNB VPB VGND VPWR
.ENDS
***************************************
.SUBCKT sky130_fd_sc_hd__fill_2
**
*.SEEDPROM
*.CALIBRE ISOLATED NETS: VNB VPB VGND VPWR
.ENDS
***************************************
.SUBCKT sky130_fd_sc_hd__decap_4 VNB VPB VGND VPWR
**
*.SEEDPROM
XM0 VGND VPWR VGND VNB sky130_fd_pr__nfet_01v8 L=1.05 W=0.55 AD=0.143 AS=0.143 PD=1.62 PS=1.62 NRD=0 NRS=0 m=1 sa=525000 sb=525000 a=0.5775 p=3.2
XM1 VPWR VGND VPWR VPB sky130_fd_pr__pfet_01v8_hvt L=1.05 W=0.87 AD=0.2262 AS=0.2262 PD=2.26 PS=2.26 NRD=0 NRS=0 m=1 sa=525000 sb=525000 a=0.9135 p=3.84
.ENDS
***************************************
.SUBCKT ICV_3 1 2
**
*.SEEDPROM
X1 1 2 1 2 sky130_fd_sc_hd__decap_4
.ENDS
***************************************
.SUBCKT sky130_fd_sc_hd__decap_6 VNB VPB VGND VPWR
**
*.SEEDPROM
XM0 VGND VPWR VGND VNB sky130_fd_pr__nfet_01v8 L=1.97 W=0.55 AD=0.143 AS=0.143 PD=1.62 PS=1.62 NRD=0 NRS=0 m=1 sa=984999 sb=984999 a=1.0835 p=5.04
XM1 VPWR VGND VPWR VPB sky130_fd_pr__pfet_01v8_hvt L=1.97 W=0.87 AD=0.2262 AS=0.2262 PD=2.26 PS=2.26 NRD=0 NRS=0 m=1 sa=984999 sb=984999 a=1.7139 p=5.68
.ENDS
***************************************
.SUBCKT ICV_4 1 2
**
*.SEEDPROM
X1 1 2 1 2 sky130_fd_sc_hd__decap_6
.ENDS
***************************************
.SUBCKT sky130_fd_sc_hd__decap_8 VNB VPB VGND VPWR
**
*.SEEDPROM
XM0 VGND VPWR VGND VNB sky130_fd_pr__nfet_01v8 L=2.89 W=0.55 AD=0.143 AS=0.143 PD=1.62 PS=1.62 NRD=0 NRS=0 m=1 sa=1.445e+06 sb=1.445e+06 a=1.5895 p=6.88
XM1 VPWR VGND VPWR VPB sky130_fd_pr__pfet_01v8_hvt L=2.89 W=0.87 AD=0.2262 AS=0.2262 PD=2.26 PS=2.26 NRD=0 NRS=0 m=1 sa=1.445e+06 sb=1.445e+06 a=2.5143 p=7.52
.ENDS
***************************************
.SUBCKT sky130_fd_sc_hd__decap_12 VNB VPB VGND VPWR
**
*.SEEDPROM
XM0 VGND VPWR VGND VNB sky130_fd_pr__nfet_01v8 L=4.73 W=0.55 AD=0.143 AS=0.143 PD=1.62 PS=1.62 NRD=0 NRS=0 m=1 sa=2.365e+06 sb=2.365e+06 a=2.6015 p=10.56
XM1 VPWR VGND VPWR VPB sky130_fd_pr__pfet_01v8_hvt L=4.73 W=0.87 AD=0.2262 AS=0.2262 PD=2.26 PS=2.26 NRD=0 NRS=0 m=1 sa=2.365e+06 sb=2.365e+06 a=4.1151 p=11.2
.ENDS
***************************************
.SUBCKT sky130_fd_sc_hd__clkbuf_8 VNB VPB A VPWR X VGND
**
*.SEEDPROM
XM0 7 A VGND VNB sky130_fd_pr__nfet_01v8 L=0.15 W=0.42 AD=0.0588 AS=0.1113 PD=0.7 PS=1.37 NRD=0 NRS=0 m=1 sa=75000.2 sb=75004.1 a=0.063 p=1.14
XM1 VGND A 7 VNB sky130_fd_pr__nfet_01v8 L=0.15 W=0.42 AD=0.0588 AS=0.0588 PD=0.7 PS=0.7 NRD=0 NRS=0 m=1 sa=75000.6 sb=75003.6 a=0.063 p=1.14
XM2 X 7 VGND VNB sky130_fd_pr__nfet_01v8 L=0.15 W=0.42 AD=0.0588 AS=0.0588 PD=0.7 PS=0.7 NRD=0 NRS=0 m=1 sa=75001.1 sb=75003.2 a=0.063 p=1.14
XM3 VGND 7 X VNB sky130_fd_pr__nfet_01v8 L=0.15 W=0.42 AD=0.0588 AS=0.0588 PD=0.7 PS=0.7 NRD=0 NRS=0 m=1 sa=75001.5 sb=75002.8 a=0.063 p=1.14
XM4 X 7 VGND VNB sky130_fd_pr__nfet_01v8 L=0.15 W=0.42 AD=0.0588 AS=0.0588 PD=0.7 PS=0.7 NRD=0 NRS=0 m=1 sa=75001.9 sb=75002.3 a=0.063 p=1.14
XM5 VGND 7 X VNB sky130_fd_pr__nfet_01v8 L=0.15 W=0.42 AD=0.0588 AS=0.0588 PD=0.7 PS=0.7 NRD=0 NRS=0 m=1 sa=75002.3 sb=75001.9 a=0.063 p=1.14
XM6 X 7 VGND VNB sky130_fd_pr__nfet_01v8 L=0.15 W=0.42 AD=0.0588 AS=0.0588 PD=0.7 PS=0.7 NRD=0 NRS=0 m=1 sa=75002.8 sb=75001.5 a=0.063 p=1.14
XM7 VGND 7 X VNB sky130_fd_pr__nfet_01v8 L=0.15 W=0.42 AD=0.0588 AS=0.0588 PD=0.7 PS=0.7 NRD=0 NRS=0 m=1 sa=75003.2 sb=75001.1 a=0.063 p=1.14
XM8 X 7 VGND VNB sky130_fd_pr__nfet_01v8 L=0.15 W=0.42 AD=0.0588 AS=0.0588 PD=0.7 PS=0.7 NRD=0 NRS=0 m=1 sa=75003.6 sb=75000.6 a=0.063 p=1.14
XM9 VGND 7 X VNB sky130_fd_pr__nfet_01v8 L=0.15 W=0.42 AD=0.1134 AS=0.0588 PD=1.38 PS=0.7 NRD=1.428 NRS=0 m=1 sa=75004.1 sb=75000.2 a=0.063 p=1.14
XM10 7 A VPWR VPB sky130_fd_pr__pfet_01v8_hvt L=0.15 W=1 AD=0.14 AS=0.265 PD=1.28 PS=2.53 NRD=0 NRS=0 m=1 sa=75000.2 sb=75004.1 a=0.15 p=2.3
XM11 VPWR A 7 VPB sky130_fd_pr__pfet_01v8_hvt L=0.15 W=1 AD=0.14 AS=0.14 PD=1.28 PS=1.28 NRD=0 NRS=0 m=1 sa=75000.6 sb=75003.6 a=0.15 p=2.3
XM12 X 7 VPWR VPB sky130_fd_pr__pfet_01v8_hvt L=0.15 W=1 AD=0.14 AS=0.14 PD=1.28 PS=1.28 NRD=0 NRS=0 m=1 sa=75001 sb=75003.2 a=0.15 p=2.3
XM13 VPWR 7 X VPB sky130_fd_pr__pfet_01v8_hvt L=0.15 W=1 AD=0.14 AS=0.14 PD=1.28 PS=1.28 NRD=0 NRS=0 m=1 sa=75001.5 sb=75002.8 a=0.15 p=2.3
XM14 X 7 VPWR VPB sky130_fd_pr__pfet_01v8_hvt L=0.15 W=1 AD=0.14 AS=0.14 PD=1.28 PS=1.28 NRD=0 NRS=0 m=1 sa=75001.9 sb=75002.3 a=0.15 p=2.3
XM15 VPWR 7 X VPB sky130_fd_pr__pfet_01v8_hvt L=0.15 W=1 AD=0.14 AS=0.14 PD=1.28 PS=1.28 NRD=0 NRS=0 m=1 sa=75002.3 sb=75001.9 a=0.15 p=2.3
XM16 X 7 VPWR VPB sky130_fd_pr__pfet_01v8_hvt L=0.15 W=1 AD=0.14 AS=0.14 PD=1.28 PS=1.28 NRD=0 NRS=0 m=1 sa=75002.8 sb=75001.5 a=0.15 p=2.3
XM17 VPWR 7 X VPB sky130_fd_pr__pfet_01v8_hvt L=0.15 W=1 AD=0.14 AS=0.14 PD=1.28 PS=1.28 NRD=0 NRS=0 m=1 sa=75003.2 sb=75001 a=0.15 p=2.3
XM18 X 7 VPWR VPB sky130_fd_pr__pfet_01v8_hvt L=0.15 W=1 AD=0.14 AS=0.14 PD=1.28 PS=1.28 NRD=0 NRS=0 m=1 sa=75003.6 sb=75000.6 a=0.15 p=2.3
XM19 VPWR 7 X VPB sky130_fd_pr__pfet_01v8_hvt L=0.15 W=1 AD=0.265 AS=0.14 PD=2.53 PS=1.28 NRD=0 NRS=0 m=1 sa=75004.1 sb=75000.2 a=0.15 p=2.3
.ENDS
***************************************
.SUBCKT sky130_fd_sc_hd__ebufn_2 VNB VPB A TE_B VPWR Z VGND
**
*.SEEDPROM
XM0 VGND A 9 VNB sky130_fd_pr__nfet_01v8 L=0.15 W=0.42 AD=0.07875 AS=0.1092 PD=0.795 PS=1.36 NRD=0 NRS=0 m=1 sa=75000.2 sb=75000.7 a=0.063 p=1.14
XM1 8 TE_B VGND VNB sky130_fd_pr__nfet_01v8 L=0.15 W=0.42 AD=0.1092 AS=0.07875 PD=1.36 PS=0.795 NRD=0 NRS=28.56 m=1 sa=75000.7 sb=75000.2 a=0.063 p=1.14
XM2 VGND 8 11 VNB sky130_fd_pr__nfet_01v8 L=0.15 W=0.65 AD=0.08775 AS=0.169 PD=0.92 PS=1.82 NRD=0 NRS=0 m=1 sa=75000.2 sb=75001.6 a=0.0975 p=1.6
XM3 11 8 VGND VNB sky130_fd_pr__nfet_01v8 L=0.15 W=0.65 AD=0.125125 AS=0.08775 PD=1.035 PS=0.92 NRD=9.228 NRS=0 m=1 sa=75000.6 sb=75001.1 a=0.0975 p=1.6
XM4 Z 9 11 VNB sky130_fd_pr__nfet_01v8 L=0.15 W=0.65 AD=0.08775 AS=0.125125 PD=0.92 PS=1.035 NRD=0 NRS=10.152 m=1 sa=75001.1 sb=75000.6 a=0.0975 p=1.6
XM5 11 9 Z VNB sky130_fd_pr__nfet_01v8 L=0.15 W=0.65 AD=0.169 AS=0.08775 PD=1.82 PS=0.92 NRD=0 NRS=0 m=1 sa=75001.6 sb=75000.2 a=0.0975 p=1.6
XM6 VPWR A 9 VPB sky130_fd_pr__pfet_01v8_hvt L=0.15 W=0.64 AD=0.12 AS=0.1664 PD=1.015 PS=1.8 NRD=15.3857 NRS=0 m=1 sa=75000.2 sb=75000.7 a=0.096 p=1.58
XM7 8 TE_B VPWR VPB sky130_fd_pr__pfet_01v8_hvt L=0.15 W=0.64 AD=0.1664 AS=0.12 PD=1.8 PS=1.015 NRD=0 NRS=13.8491 m=1 sa=75000.7 sb=75000.2 a=0.096 p=1.58
XM8 VPWR TE_B 10 VPB sky130_fd_pr__pfet_01v8_hvt L=0.15 W=0.94 AD=0.1269 AS=0.2444 PD=1.21 PS=2.4 NRD=0 NRS=0 m=1 sa=75000.2 sb=75001.9 a=0.141 p=2.18
XM9 10 TE_B VPWR VPB sky130_fd_pr__pfet_01v8_hvt L=0.15 W=0.94 AD=0.358799 AS=0.1269 PD=1.69103 PS=1.21 NRD=11.5245 NRS=0 m=1 sa=75000.6 sb=75001.5 a=0.141 p=2.18
XM10 Z 9 10 VPB sky130_fd_pr__pfet_01v8_hvt L=0.15 W=1 AD=0.135 AS=0.381701 PD=1.27 PS=1.79897 NRD=0 NRS=13.7703 m=1 sa=75001.4 sb=75000.6 a=0.15 p=2.3
XM11 10 9 Z VPB sky130_fd_pr__pfet_01v8_hvt L=0.15 W=1 AD=0.26 AS=0.135 PD=2.52 PS=1.27 NRD=0 NRS=0 m=1 sa=75001.9 sb=75000.2 a=0.15 p=2.3
.ENDS
***************************************
.SUBCKT sky130_fd_sc_hd__tapvpwrvgnd_1
**
*.SEEDPROM
*.CALIBRE ISOLATED NETS: VGND VPWR
.ENDS
***************************************
.SUBCKT ICV_5 1 2
**
*.SEEDPROM
X0 1 2 1 2 sky130_fd_sc_hd__decap_12
.ENDS
***************************************
.SUBCKT ICV_6 1 2 3 4 5
**
*.SEEDPROM
X0 1 2 3 4 2 5 1 sky130_fd_sc_hd__ebufn_2
.ENDS
***************************************
.SUBCKT ICV_7
**
*.SEEDPROM
.ENDS
***************************************
.SUBCKT ICV_8
**
*.SEEDPROM
.ENDS
***************************************
.SUBCKT ICV_9 1 2
**
*.SEEDPROM
X0 1 2 1 2 sky130_fd_sc_hd__decap_8
X1 1 2 1 2 sky130_fd_sc_hd__decap_12
.ENDS
***************************************
.SUBCKT ICV_10 1 2
**
*.SEEDPROM
X0 1 2 1 2 sky130_fd_sc_hd__decap_6
.ENDS
***************************************
.SUBCKT ICV_11 1 2
**
*.SEEDPROM
X0 1 2 1 2 sky130_fd_sc_hd__decap_12
X1 1 2 1 2 sky130_fd_sc_hd__decap_12
.ENDS
***************************************
.SUBCKT ICV_12 1 2
**
*.SEEDPROM
X0 1 2 1 2 sky130_fd_sc_hd__decap_12
X1 1 2 ICV_11
.ENDS
***************************************
.SUBCKT sky130_fd_sc_hd__dfxtp_1 VNB VPB CLK D VPWR Q VGND
**
*.SEEDPROM
XM0 VGND CLK 8 VNB sky130_fd_pr__nfet_01v8 L=0.15 W=0.42 AD=0.0567 AS=0.1092 PD=0.69 PS=1.36 NRD=0 NRS=0 m=1 sa=75000.2 sb=75000.6 a=0.063 p=1.14
XM1 9 8 VGND VNB sky130_fd_pr__nfet_01v8 L=0.15 W=0.42 AD=0.1092 AS=0.0567 PD=1.36 PS=0.69 NRD=0 NRS=0 m=1 sa=75000.6 sb=75000.2 a=0.063 p=1.14
XM2 14 D VGND VNB sky130_fd_pr__nfet_01v8 L=0.15 W=0.42 AD=0.0875538 AS=0.1092 PD=0.893846 PS=1.36 NRD=0 NRS=0 m=1 sa=75000.2 sb=75003.3 a=0.063 p=1.14
XM3 11 8 14 VNB sky130_fd_pr__nfet_01v8 L=0.15 W=0.36 AD=0.0621 AS=0.0750462 PD=0.705 PS=0.766154 NRD=0 NRS=43.332 m=1 sa=75000.7 sb=75003.3 a=0.054 p=1.02
XM4 17 9 11 VNB sky130_fd_pr__nfet_01v8 L=0.15 W=0.36 AD=0.0642462 AS=0.0621 PD=0.706154 PS=0.705 NRD=41.148 NRS=23.328 m=1 sa=75001.2 sb=75002.8 a=0.054 p=1.02
XM5 VGND 10 17 VNB sky130_fd_pr__nfet_01v8 L=0.15 W=0.42 AD=0.0958472 AS=0.0749538 PD=0.859811 PS=0.823846 NRD=0 NRS=35.268 m=1 sa=75001.5 sb=75002.1 a=0.063 p=1.14
XM6 10 11 VGND VNB sky130_fd_pr__nfet_01v8 L=0.15 W=0.64 AD=0.126592 AS=0.146053 PD=1.2736 PS=1.31019 NRD=0 NRS=30.936 m=1 sa=75001.4 sb=75001 a=0.096 p=1.58
XM7 13 9 10 VNB sky130_fd_pr__nfet_01v8 L=0.15 W=0.36 AD=0.0684 AS=0.071208 PD=0.74 PS=0.7164 NRD=3.324 NRS=24.996 m=1 sa=75002.8 sb=75001.2 a=0.054 p=1.02
XM8 18 8 13 VNB sky130_fd_pr__nfet_01v8 L=0.15 W=0.36 AD=0.0609231 AS=0.0684 PD=0.687692 PS=0.74 NRD=38.076 NRS=30 m=1 sa=75003.4 sb=75000.7 a=0.054 p=1.02
XM9 VGND 12 18 VNB sky130_fd_pr__nfet_01v8 L=0.15 W=0.42 AD=0.1092 AS=0.0710769 PD=1.36 PS=0.802308 NRD=0 NRS=32.628 m=1 sa=75003.3 sb=75000.2 a=0.063 p=1.14
XM10 VGND 13 12 VNB sky130_fd_pr__nfet_01v8 L=0.15 W=0.65 AD=0.08775 AS=0.169 PD=0.92 PS=1.82 NRD=0 NRS=0 m=1 sa=75000.2 sb=75000.6 a=0.0975 p=1.6
XM11 Q 12 VGND VNB sky130_fd_pr__nfet_01v8 L=0.15 W=0.65 AD=0.169 AS=0.08775 PD=1.82 PS=0.92 NRD=0 NRS=0 m=1 sa=75000.6 sb=75000.2 a=0.0975 p=1.6
XM12 VPWR CLK 8 VPB sky130_fd_pr__pfet_01v8_hvt L=0.15 W=0.64 AD=0.0864 AS=0.1664 PD=0.91 PS=1.8 NRD=0 NRS=0 m=1 sa=75000.2 sb=75000.6 a=0.096 p=1.58
XM13 9 8 VPWR VPB sky130_fd_pr__pfet_01v8_hvt L=0.15 W=0.64 AD=0.1664 AS=0.0864 PD=1.8 PS=0.91 NRD=0 NRS=0 m=1 sa=75000.6 sb=75000.2 a=0.096 p=1.58
XM14 14 D VPWR VPB sky130_fd_pr__pfet_01v8_hvt L=0.15 W=0.42 AD=0.05775 AS=0.1092 PD=0.695 PS=1.36 NRD=0 NRS=0 m=1 sa=75000.2 sb=75003.7 a=0.063 p=1.14
XM15 11 9 14 VPB sky130_fd_pr__pfet_01v8_hvt L=0.15 W=0.42 AD=0.06825 AS=0.05775 PD=0.745 PS=0.695 NRD=14.0658 NRS=0 m=1 sa=75000.6 sb=75003.3 a=0.063 p=1.14
XM16 15 8 11 VPB sky130_fd_pr__pfet_01v8_hvt L=0.15 W=0.42 AD=0.07665 AS=0.06825 PD=0.785 PS=0.745 NRD=59.7895 NRS=7.0329 m=1 sa=75001.1 sb=75002.8 a=0.063 p=1.14
XM17 VPWR 10 15 VPB sky130_fd_pr__pfet_01v8_hvt L=0.15 W=0.42 AD=0.128423 AS=0.07665 PD=0.904615 PS=0.785 NRD=111.384 NRS=59.7895 m=1 sa=75001.6 sb=75002.3 a=0.063 p=1.14
XM18 10 11 VPWR VPB sky130_fd_pr__pfet_01v8_hvt L=0.15 W=0.75 AD=0.140385 AS=0.229327 PD=1.37821 PS=1.61538 NRD=0 NRS=0 m=1 sa=75001.4 sb=75001 a=0.1125 p=1.8
XM19 13 8 10 VPB sky130_fd_pr__pfet_01v8_hvt L=0.15 W=0.42 AD=0.0567 AS=0.0786154 PD=0.69 PS=0.771795 NRD=0 NRS=23.443 m=1 sa=75002.7 sb=75001.2 a=0.063 p=1.14
XM20 16 9 13 VPB sky130_fd_pr__pfet_01v8_hvt L=0.15 W=0.42 AD=0.0882 AS=0.0567 PD=0.84 PS=0.69 NRD=72.693 NRS=0 m=1 sa=75003.2 sb=75000.8 a=0.063 p=1.14
XM21 VPWR 12 16 VPB sky130_fd_pr__pfet_01v8_hvt L=0.15 W=0.42 AD=0.1113 AS=0.0882 PD=1.37 PS=0.84 NRD=0 NRS=72.693 m=1 sa=75003.7 sb=75000.2 a=0.063 p=1.14
XM22 VPWR 13 12 VPB sky130_fd_pr__pfet_01v8_hvt L=0.15 W=1 AD=0.135 AS=0.27 PD=1.27 PS=2.54 NRD=0 NRS=0.9653 m=1 sa=75000.2 sb=75000.6 a=0.15 p=2.3
XM23 Q 12 VPWR VPB sky130_fd_pr__pfet_01v8_hvt L=0.15 W=1 AD=0.26 AS=0.135 PD=2.52 PS=1.27 NRD=0 NRS=0 m=1 sa=75000.6 sb=75000.2 a=0.15 p=2.3
.ENDS
***************************************
.SUBCKT ICV_13 1 2 3 4 5 6 7 8
**
*.SEEDPROM
X0 1 2 3 4 2 5 1 sky130_fd_sc_hd__ebufn_2
X1 1 2 6 7 2 8 1 sky130_fd_sc_hd__dfxtp_1
.ENDS
***************************************
.SUBCKT ICV_14 1 2 3 4 5 6 7 8
**
*.SEEDPROM
X1 1 2 6 7 8 3 4 5 ICV_13
.ENDS
***************************************
.SUBCKT ICV_15 1 2 3 4 5 6 7 8 9 10 11
**
*.SEEDPROM
X0 1 2 3 4 2 5 1 sky130_fd_sc_hd__ebufn_2
X1 1 2 9 10 11 6 7 8 ICV_13
.ENDS
***************************************
.SUBCKT ICV_16 1 2 3 4 5 6 7 8
**
*.SEEDPROM
X1 1 2 6 7 8 3 4 5 ICV_13
.ENDS
***************************************
.SUBCKT ICV_17 1 2 3 4 5 6 7 8
**
*.SEEDPROM
X0 1 2 1 2 sky130_fd_sc_hd__decap_3
X1 1 2 6 7 8 3 4 5 ICV_13
.ENDS
***************************************
.SUBCKT ICV_18
**
*.SEEDPROM
.ENDS
***************************************
.SUBCKT ICV_19 1 2 3 4 5 6 7 8
**
*.SEEDPROM
X0 1 2 1 2 sky130_fd_sc_hd__decap_4
X1 1 2 6 7 8 3 4 5 ICV_13
.ENDS
***************************************
.SUBCKT ICV_20 1 2 3 4 5
**
*.SEEDPROM
X1 1 2 3 4 2 5 1 sky130_fd_sc_hd__dfxtp_1
.ENDS
***************************************
.SUBCKT ICV_21 1 2 3 4 5
**
*.SEEDPROM
X0 1 2 1 2 sky130_fd_sc_hd__decap_6
X1 1 2 3 4 5 ICV_20
.ENDS
***************************************
.SUBCKT ICV_22 1 2 3 4 5 6 7 8
**
*.SEEDPROM
X0 1 2 ICV_3
X1 1 2 6 7 8 3 4 5 ICV_13
.ENDS
***************************************
.SUBCKT ICV_23 1 2
**
*.SEEDPROM
X0 1 2 1 2 sky130_fd_sc_hd__decap_3
.ENDS
***************************************
.SUBCKT ICV_24 1 2
**
*.SEEDPROM
X0 1 2 1 2 sky130_fd_sc_hd__decap_4
.ENDS
***************************************
.SUBCKT sky130_fd_sc_hd__inv_1 VNB VPB A VPWR Y VGND
**
*.SEEDPROM
XM0 Y A VGND VNB sky130_fd_pr__nfet_01v8 L=0.15 W=0.65 AD=0.169 AS=0.169 PD=1.82 PS=1.82 NRD=0 NRS=0 m=1 sa=75000.2 sb=75000.2 a=0.0975 p=1.6
XM1 Y A VPWR VPB sky130_fd_pr__pfet_01v8_hvt L=0.15 W=1 AD=0.26 AS=0.26 PD=2.52 PS=2.52 NRD=0 NRS=0 m=1 sa=75000.2 sb=75000.2 a=0.15 p=2.3
.ENDS
***************************************
.SUBCKT ICV_25 1 2
**
*.SEEDPROM
X0 1 2 1 2 sky130_fd_sc_hd__decap_6
.ENDS
***************************************
.SUBCKT ICV_26 1 2 3 4 5
**
*.SEEDPROM
X1 1 2 3 4 2 5 1 sky130_fd_sc_hd__ebufn_2
.ENDS
***************************************
.SUBCKT ICV_27 1 2 3 4 5 6 7
**
*.SEEDPROM
X0 1 2 3 4 2 5 1 sky130_fd_sc_hd__dfxtp_1
X1 1 2 6 2 7 1 sky130_fd_sc_hd__inv_1
.ENDS
***************************************
.SUBCKT ICV_28 1 2 3 4 5
**
*.SEEDPROM
X0 1 2 1 2 sky130_fd_sc_hd__decap_4
X1 1 2 3 4 2 5 1 sky130_fd_sc_hd__dfxtp_1
.ENDS
***************************************
.SUBCKT ICV_29 1 2 3 4 5
**
*.SEEDPROM
X0 1 2 1 2 sky130_fd_sc_hd__decap_4
X1 1 2 3 4 5 ICV_20
.ENDS
***************************************
.SUBCKT ICV_30 1 2 3 4 5 6 7 8
**
*.SEEDPROM
X0 1 2 3 4 2 5 1 sky130_fd_sc_hd__ebufn_2
X1 1 2 6 7 2 8 1 sky130_fd_sc_hd__ebufn_2
.ENDS
***************************************
.SUBCKT sky130_fd_sc_hd__and2_1 VNB VPB A B VPWR X VGND
**
*.SEEDPROM
XM0 9 A 8 VNB sky130_fd_pr__nfet_01v8 L=0.15 W=0.42 AD=0.0567 AS=0.1176 PD=0.69 PS=1.4 NRD=22.848 NRS=0 m=1 sa=75000.2 sb=75001.2 a=0.063 p=1.14
XM1 VGND B 9 VNB sky130_fd_pr__nfet_01v8 L=0.15 W=0.42 AD=0.0877682 AS=0.0567 PD=0.816449 PS=0.69 NRD=34.284 NRS=22.848 m=1 sa=75000.6 sb=75000.7 a=0.063 p=1.14
XM2 X 8 VGND VNB sky130_fd_pr__nfet_01v8 L=0.15 W=0.65 AD=0.182 AS=0.135832 PD=1.86 PS=1.26355 NRD=0 NRS=0 m=1 sa=75000.8 sb=75000.2 a=0.0975 p=1.6
XM3 8 A VPWR VPB sky130_fd_pr__pfet_01v8_hvt L=0.15 W=0.42 AD=0.0567 AS=0.1176 PD=0.69 PS=1.4 NRD=0 NRS=0 m=1 sa=75000.2 sb=75001.4 a=0.063 p=1.14
XM4 VPWR B 8 VPB sky130_fd_pr__pfet_01v8_hvt L=0.15 W=0.42 AD=0.0985225 AS=0.0567 PD=0.822254 PS=0.69 NRD=55.1009 NRS=0 m=1 sa=75000.6 sb=75000.9 a=0.063 p=1.14
XM5 X 8 VPWR VPB sky130_fd_pr__pfet_01v8_hvt L=0.15 W=1 AD=0.475 AS=0.234577 PD=2.95 PS=1.95775 NRD=18.715 NRS=0 m=1 sa=75000.6 sb=75000.4 a=0.15 p=2.3
.ENDS
***************************************
.SUBCKT ICV_31 1 2
**
*.SEEDPROM
X0 1 2 ICV_3
.ENDS
***************************************
.SUBCKT sky130_fd_sc_hd__dlclkp_1 VNB VPB CLK GATE VPWR GCLK VGND
**
*.SEEDPROM
XM0 VGND CLK 9 VNB sky130_fd_pr__nfet_01v8 L=0.15 W=0.42 AD=0.0567 AS=0.1092 PD=0.69 PS=1.36 NRD=0 NRS=0 m=1 sa=75000.2 sb=75000.6 a=0.063 p=1.14
XM1 8 9 VGND VNB sky130_fd_pr__nfet_01v8 L=0.15 W=0.42 AD=0.1092 AS=0.0567 PD=1.36 PS=0.69 NRD=0 NRS=0 m=1 sa=75000.6 sb=75000.2 a=0.063 p=1.14
XM2 15 GATE VGND VNB sky130_fd_pr__nfet_01v8 L=0.15 W=0.42 AD=0.117125 AS=0.1281 PD=1.085 PS=1.45 NRD=63.96 NRS=11.424 m=1 sa=75000.2 sb=75000.6 a=0.063 p=1.14
XM3 11 9 15 VNB sky130_fd_pr__nfet_01v8 L=0.15 W=0.42 AD=0.123615 AS=0.117125 PD=1.13037 PS=1.085 NRD=81.42 NRS=63.96 m=1 sa=75000.4 sb=75001.4 a=0.063 p=1.14
XM4 16 8 11 VNB sky130_fd_pr__nfet_01v8 L=0.15 W=0.39 AD=0.0646389 AS=0.114785 PD=0.717407 PS=1.04963 NRD=34.068 NRS=3.072 m=1 sa=75000.9 sb=75001.2 a=0.0585 p=1.08
XM5 VGND 10 16 VNB sky130_fd_pr__nfet_01v8 L=0.15 W=0.42 AD=0.0927336 AS=0.0696111 PD=0.816449 PS=0.772593 NRD=32.856 NRS=31.632 m=1 sa=75001.2 sb=75000.7 a=0.063 p=1.14
XM6 10 11 VGND VNB sky130_fd_pr__nfet_01v8 L=0.15 W=0.65 AD=0.169 AS=0.143516 PD=1.82 PS=1.26355 NRD=0 NRS=0 m=1 sa=75001.2 sb=75000.2 a=0.0975 p=1.6
XM7 17 10 12 VNB sky130_fd_pr__nfet_01v8 L=0.15 W=0.42 AD=0.0441 AS=0.1092 PD=0.63 PS=1.36 NRD=14.28 NRS=0 m=1 sa=75000.2 sb=75001 a=0.063 p=1.14
XM8 VGND CLK 17 VNB sky130_fd_pr__nfet_01v8 L=0.15 W=0.42 AD=0.0761495 AS=0.0441 PD=0.765421 PS=0.63 NRD=12.852 NRS=14.28 m=1 sa=75000.5 sb=75000.7 a=0.063 p=1.14
XM9 GCLK 12 VGND VNB sky130_fd_pr__nfet_01v8 L=0.15 W=0.65 AD=0.169 AS=0.11785 PD=1.82 PS=1.18458 NRD=0 NRS=0 m=1 sa=75000.7 sb=75000.2 a=0.0975 p=1.6
XM10 VPWR CLK 9 VPB sky130_fd_pr__pfet_01v8_hvt L=0.15 W=0.64 AD=0.0864 AS=0.1664 PD=0.91 PS=1.8 NRD=0 NRS=0 m=1 sa=75000.2 sb=75000.6 a=0.096 p=1.58
XM11 8 9 VPWR VPB sky130_fd_pr__pfet_01v8_hvt L=0.15 W=0.64 AD=0.1664 AS=0.0864 PD=1.8 PS=0.91 NRD=0 NRS=0 m=1 sa=75000.6 sb=75000.2 a=0.096 p=1.58
XM12 13 GATE VPWR VPB sky130_fd_pr__pfet_01v8_hvt L=0.15 W=0.64 AD=0.115623 AS=0.1664 PD=1.16528 PS=1.8 NRD=38.6711 NRS=0 m=1 sa=75000.2 sb=75001.1 a=0.096 p=1.58
XM13 11 8 13 VPB sky130_fd_pr__pfet_01v8_hvt L=0.15 W=0.42 AD=0.0987 AS=0.0758774 PD=0.89 PS=0.764717 NRD=56.2829 NRS=58.9227 m=1 sa=75000.7 sb=75001.2 a=0.063 p=1.14
XM14 14 9 11 VPB sky130_fd_pr__pfet_01v8_hvt L=0.15 W=0.42 AD=0.0441 AS=0.0987 PD=0.63 PS=0.89 NRD=23.443 NRS=32.8202 m=1 sa=75001.3 sb=75000.5 a=0.063 p=1.14
XM15 VPWR 10 14 VPB sky130_fd_pr__pfet_01v8_hvt L=0.15 W=0.42 AD=0.1092 AS=0.0441 PD=1.36 PS=0.63 NRD=0 NRS=23.443 m=1 sa=75001.6 sb=75000.2 a=0.063 p=1.14
XM16 VPWR 11 10 VPB sky130_fd_pr__pfet_01v8_hvt L=0.15 W=1 AD=0.181707 AS=0.27 PD=1.61585 PS=2.54 NRD=1.9503 NRS=0 m=1 sa=75000.2 sb=75001.3 a=0.15 p=2.3
XM17 12 10 VPWR VPB sky130_fd_pr__pfet_01v8_hvt L=0.15 W=0.64 AD=0.2032 AS=0.116293 PD=1.275 PS=1.03415 NRD=75.4116 NRS=10.7562 m=1 sa=75000.7 sb=75001.4 a=0.096 p=1.58
XM18 VPWR CLK 12 VPB sky130_fd_pr__pfet_01v8_hvt L=0.15 W=0.64 AD=0.116293 AS=0.2032 PD=1.03415 PS=1.275 NRD=15.3857 NRS=33.8446 m=1 sa=75001.5 sb=75000.7 a=0.096 p=1.58
XM19 GCLK 12 VPWR VPB sky130_fd_pr__pfet_01v8_hvt L=0.15 W=1 AD=0.26 AS=0.181707 PD=2.52 PS=1.61585 NRD=0 NRS=0 m=1 sa=75001.3 sb=75000.2 a=0.15 p=2.3
.ENDS
***************************************
.SUBCKT ICV_32 1 2
**
*.SEEDPROM
X0 1 2 1 2 sky130_fd_sc_hd__decap_8
.ENDS
***************************************
.SUBCKT ICV_33 1 2
**
*.SEEDPROM
X0 1 2 ICV_10
X1 1 2 ICV_11
.ENDS
***************************************
.SUBCKT ICV_34 1 2
**
*.SEEDPROM
X0 1 2 ICV_33
X1 1 2 ICV_33
.ENDS
***************************************
.SUBCKT ICV_35 1 2 3 4 5
**
*.SEEDPROM
X1 1 2 3 4 2 5 1 sky130_fd_sc_hd__dfxtp_1
.ENDS
***************************************
.SUBCKT ICV_36 1 2 3 4 5
**
*.SEEDPROM
X0 1 2 1 2 sky130_fd_sc_hd__decap_6
X1 1 2 3 4 2 5 1 sky130_fd_sc_hd__dfxtp_1
.ENDS
***************************************
.SUBCKT ICV_37 1 2 3 4 5
**
*.SEEDPROM
X1 1 2 3 4 2 5 1 sky130_fd_sc_hd__dfxtp_1
.ENDS
***************************************
.SUBCKT ICV_38 1 2 3 4 5 6 7 8
**
*.SEEDPROM
X0 1 2 3 4 2 5 1 sky130_fd_sc_hd__dfxtp_1
X1 1 2 6 7 2 8 1 sky130_fd_sc_hd__dfxtp_1
.ENDS
***************************************
.SUBCKT ICV_39 1 2 3 4 5
**
*.SEEDPROM
X1 1 2 3 4 2 5 1 sky130_fd_sc_hd__ebufn_2
.ENDS
***************************************
.SUBCKT ICV_40 1 2 3 4 5
**
*.SEEDPROM
X0 1 2 1 2 sky130_fd_sc_hd__decap_4
X1 1 2 3 4 2 5 1 sky130_fd_sc_hd__ebufn_2
.ENDS
***************************************
.SUBCKT ICV_41 1 2 3 4 5
**
*.SEEDPROM
X0 1 2 1 2 sky130_fd_sc_hd__decap_6