* Power pads library (sky130 power pads + overlays) sky130_ef_io
* Includes corner and fill cell subcircuits

*----------------------------------------------------------
* sky130_ef_io__vccd_hvc_pad
* Power pad connects pad to VCCD with unconnected HV clamp
*----------------------------------------------------------

.SUBCKT sky130_ef_io__vccd_hvc_pad
+ AMUXBUS_A AMUXBUS_B DRN_HVC
+ SRC_BDY_HVC VSSA VDDA VSWITCH VDDIO_Q VCCHIB VDDIO VCCD
+ VSSIO VSSD VSSIO_Q

* Instantiate the underlying power pad (connects P_PAD to VCCD)
Xsky130_fd_io__top_power_hvc_base
+ AMUXBUS_A AMUXBUS_B DRN_HVC VDDIO
+ VCCD VCCD
+ SRC_BDY_HVC VCCD VCCHIB VDDA VDDIO VDDIO_Q
+ VSSA VSSD VSSIO VSSIO_Q VSWITCH
+ sky130_fd_io__top_power_hvc_wpadv2

.ENDS

*----------------------------------------------------------
* sky130_ef_io__vccd_lvc_pad
* Power pad connects pad to VCCD with unconnected LV clamp
*----------------------------------------------------------

.SUBCKT sky130_ef_io__vccd_lvc_pad AMUXBUS_A AMUXBUS_B
+ DRN_LVC1 DRN_LVC2 SRC_BDY_LVC1 SRC_BDY_LVC2 BDY2_B2B
+ VSSA VDDA VSWITCH VDDIO_Q VCCHIB VDDIO VCCD
+ VSSIO VSSD VSSIO_Q

* Instantiate the underlying power pad (connects P_PAD to VCCD)
Xsky130_fd_io__top_power_lvc_base
+ AMUXBUS_A AMUXBUS_B BDY2_B2B DRN_LVC1 DRN_LVC2 VDDIO
+ VCCD VCCD
+ SRC_BDY_LVC1 SRC_BDY_LVC2 VCCD VCCHIB VDDA VDDIO VDDIO_Q
+ VSSA VSSD VSSIO VSSIO_Q VSWITCH
+ sky130_fd_io__top_power_lvc_wpad

.ENDS

*----------------------------------------------------------
* sky130_ef_io__vdda_lvc_pad
* Power pad connects pad to VDDA with unconnected LV clamp
*----------------------------------------------------------

.SUBCKT sky130_ef_io__vdda_lvc_pad
+ AMUXBUS_A AMUXBUS_B
+ DRN_LVC1 DRN_LVC2 SRC_BDY_LVC1 SRC_BDY_LVC2 BDY2_B2B
+ VSSA VDDA VSWITCH VDDIO_Q VCCHIB VDDIO VCCD
+ VSSIO VSSD VSSIO_Q


* Instantiate the underlying power pad (connects P_PAD to VDDA)
Xsky130_fd_io__top_power_lvc_base
+ AMUXBUS_A AMUXBUS_B BDY2_B2B DRN_LVC1 DRN_LVC2 VDDIO
+ VDDA VDDA
+ SRC_BDY_LVC1 SRC_BDY_LVC2 VCCD VCCHIB VDDA VDDIO VDDIO_Q
+ VSSA VSSD VSSIO VSSIO_Q VSWITCH
+ sky130_fd_io__top_power_lvc_wpad

.ENDS

*----------------------------------------------------------
* sky130_ef_io__vdda_lvc_pad
* Power pad connects pad to VDDA with unconnected HV clamp
*----------------------------------------------------------

.SUBCKT sky130_ef_io__vdda_hvc_pad
+ AMUXBUS_A AMUXBUS_B DRN_HVC
+ SRC_BDY_HVCVSSA VDDA VSWITCH VDDIO_Q VCCHIB VDDIO VCCD
+ VSSIO VSSD VSSIO_Q

* Instantiate the underlying power pad (connects P_PAD to VDDA)
Xsky130_fd_io__top_power_hvc_base
+ AMUXBUS_A AMUXBUS_B DRN_HVC VDDIO
+ VDDA VDDA
+ SRC_BDY_HVC VCCD VCCHIB VDDA VDDIO VDDIO_Q
+ VSSA VSSD VSSIO VSSIO_Q VSWITCH
+ sky130_fd_io__top_power_hvc_wpadv2

.ENDS

*----------------------------------------------------------
* sky130_ef_io__vddio_lvc_pad
* Power pad connects pad to VDDIO with unconnected LV clamp
*----------------------------------------------------------

.SUBCKT sky130_ef_io__vddio_lvc_pad
+ AMUXBUS_A AMUXBUS_B
+ DRN_LVC1 DRN_LVC2 SRC_BDY_LVC1 SRC_BDY_LVC2 BDY2_B2B
+ VSSA VDDA VSWITCH VDDIO_Q VCCHIB VDDIO VCCD
+ VSSIO VSSD VSSIO_Q

* Instantiate the underlying power pad (connects P_PAD and VDDIO_Q to VDDIO)
Xsky130_fd_io__top_power_lvc_base
+ AMUXBUS_A AMUXBUS_B BDY2_B2B DRN_LVC1 DRN_LVC2 VDDIO
+ VDDIO VDDIO
+ SRC_BDY_LVC1 SRC_BDY_LVC2 VCCD VCCHIB VDDA VDDIO VDDIO_Q
+ VSSA VSSD VSSIO VSSIO_Q VSWITCH
+ sky130_fd_io__top_power_lvc_wpad

.ENDS

*----------------------------------------------------------
* sky130_ef_io__vddio_hvc_pad
* Power pad connects pad to VDDIO with unconnected HV clamp
*----------------------------------------------------------

.SUBCKT sky130_ef_io__vddio_hvc_pad
+ AMUXBUS_A AMUXBUS_B DRN_HVC
+ SRC_BDY_HVCVSSA VDDA VSWITCH VDDIO_Q VCCHIB VDDIO VCCD
+ VSSIO VSSD VSSIO_Q

* Instantiate the underlying power pad (connects P_PAD and VDDIO_Q to VDDIO)
Xsky130_fd_io__top_power_hvc_base
+ AMUXBUS_A AMUXBUS_B DRN_HVC VDDIO
+ VDDIO VDDIO
+ SRC_BDY_HVC VCCD VCCHIB VDDA VDDIO VDDIO_Q
+ VSSA VSSD VSSIO VSSIO_Q VSWITCH
+ sky130_fd_io__top_power_hvc_wpadv2

.ENDS

*----------------------------------------------------------
* sky130_ef_io__vssd_lvc_pad
* Ground pad connects pad to VSSD with unconnected LV clamp
*----------------------------------------------------------

.SUBCKT sky130_ef_io__vssd_lvc_pad
+ AMUXBUS_A AMUXBUS_B
+ DRN_LVC1 DRN_LVC2 SRC_BDY_LVC1 SRC_BDY_LVC2 BDY2_B2B
+ VSSA VDDA VSWITCH VDDIO_Q VCCHIB VDDIO VCCD
+ VSSIO VSSD VSSIO_Q

* Instantiate the underlying ground pad (connects G_PAD to VSSD)
Xsky130_fd_io__top_ground_lvc_base
+ AMUXBUS_A AMUXBUS_B BDY2_B2B DRN_LVC1 DRN_LVC2
+ VSSD VSSD
+ VDDIO SRC_BDY_LVC1 SRC_BDY_LVC2 VCCD VCCHIB VDDA VDDIO VDDIO_Q
+ VSSA VSSD VSSIO VSSIO_Q VSWITCH
+ sky130_fd_io__top_ground_lvc_wpad

.ENDS

*----------------------------------------------------------
* sky130_ef_io__vssd_hvc_pad
* Ground pad connects pad to VSSD with unconnected HV clamp
*----------------------------------------------------------

.SUBCKT sky130_ef_io__vssd_hvc_pad
+ AMUXBUS_A AMUXBUS_B DRN_HVC
+ SRC_BDY_HVC VSSA VDDA VSWITCH VDDIO_Q VCCHIB VDDIO VCCD
+ VSSIO VSSD VSSIO_Q

* Instantiate the underlying ground pad (connects G_PAD to VSSD)
Xsky130_fd_io__top_ground_hvc_base
+ AMUXBUS_A AMUXBUS_B DRN_HVC
+ VSSD VSSD
+ VDDIO SRC_BDY_HVC VCCD VCCHIB VDDA VDDIO VDDIO_Q
+ VSSA VSSD VSSIO VSSIO_Q VSWITCH
+ sky130_fd_io__top_ground_hvc_wpad

.ENDS

*----------------------------------------------------------
* sky130_ef_io__vssio_lvc_pad
* Ground pad connects pad to VSSIO with unconnected LV clamp
*----------------------------------------------------------

.SUBCKT sky130_ef_io__vssio_lvc_pad
+ AMUXBUS_A AMUXBUS_B
+ DRN_LVC1 DRN_LVC2 SRC_BDY_LVC1 SRC_BDY_LVC2 BDY2_B2B
+ VSSA VDDA VSWITCH VDDIO_Q VCCHIB VDDIO VCCD
+ VSSIO VSSD VSSIO_Q

* Instantiate the underlying ground pad (connects G_PAD and VSSIO_Q to VSSIO)
Xsky130_fd_io__top_ground_lvc_base
+ AMUXBUS_A AMUXBUS_B BDY2_B2B DRN_LVC1 DRN_LVC2
+ VSSIO VSSIO
+ VDDIO SRC_BDY_LVC1 SRC_BDY_LVC2 VCCD VCCHIB VDDA VDDIO VDDIO_Q
+ VSSA VSSD VSSIO VSSIO_Q VSWITCH
+ sky130_fd_io__top_ground_lvc_wpad

.ENDS

*----------------------------------------------------------
* sky130_ef_io__vssio_hvc_pad
* Ground pad connects pad to VSSIO with unconnected HV clamp
*----------------------------------------------------------

.SUBCKT sky130_ef_io__vssio_hvc_pad
+ AMUXBUS_A AMUXBUS_B DRN_HVC
+ SRC_BDY_HVCVSSA VDDA VSWITCH VDDIO_Q VCCHIB VDDIO VCCD
+ VSSIO VSSD VSSIO_Q

* Instantiate the underlying ground pad (connects G_PAD and VSSIO_Q to VSSIO)
Xsky130_fd_io__top_ground_hvc_base
+ AMUXBUS_A AMUXBUS_B DRN_HVC
+ VSSIO VSSIO
+ VDDIO SRC_BDY_HVC VCCD VCCHIB VDDA VDDIO VDDIO_Q
+ VSSA VSSD VSSIO VSSIO_Q VSWITCH
+ sky130_fd_io__top_ground_hvc_wpad

.ENDS

*----------------------------------------------------------
* sky130_ef_io__vssio_lvc_pad
* Ground pad connects pad to VSSIO with unconnected LV clamp
*----------------------------------------------------------

.SUBCKT sky130_ef_io__vssa_lvc_pad
+ AMUXBUS_A AMUXBUS_B
+ DRN_LVC1 DRN_LVC2 SRC_BDY_LVC1 SRC_BDY_LVC2 BDY2_B2B
+ VSSA VDDA VSWITCH VDDIO_Q VCCHIB VDDIO VCCD
+ VSSIO VSSD VSSIO_Q

* Instantiate the underlying ground pad (connects G_PAD to VSSA)
Xsky130_fd_io__top_ground_lvc_base
+ AMUXBUS_A AMUXBUS_B BDY2_B2B DRN_LVC1 DRN_LVC2
+ VSSA VSSA
+ VDDIO SRC_BDY_LVC1 SRC_BDY_LVC2 VCCD VCCHIB VDDA VDDIO VDDIO_Q
+ VSSA VSSD VSSIO VSSIO_Q VSWITCH
+ sky130_fd_io__top_ground_lvc_wpad

.ENDS

*----------------------------------------------------------
* sky130_ef_io__vssa_lvc_pad
* Ground pad connects pad to VSSA with unconnected HV clamp
*----------------------------------------------------------

.SUBCKT sky130_ef_io__vssa_hvc_pad
+ AMUXBUS_A AMUXBUS_B DRN_HVC
+ SRC_BDY_HVCVSSA VDDA VSWITCH VDDIO_Q VCCHIB VDDIO VCCD
+ VSSIO VSSD VSSIO_Q

* Instantiate the underlying ground pad (connects G_PAD to VSSA)
Xsky130_fd_io__top_ground_hvc_base
+ AMUXBUS_A AMUXBUS_B DRN_HVC
+ VSSA VSSA
+ VDDIO SRC_BDY_HVC VCCD VCCHIB VDDA VDDIO VDDIO_Q
+ VSSA VSSD VSSIO VSSIO_Q VSWITCH
+ sky130_fd_io__top_ground_hvc_wpad
.ENDS

*----------------------------------------------------------
* sky130_ef_io__corner_pad
* Plain corner pad
*----------------------------------------------------------

.SUBCKT sky130_ef_io__corner_pad
+ AMUXBUS_A AMUXBUS_B
+ VSSA VDDA VSWITCH VDDIO_Q VCCHIB VDDIO VCCD
+ VSSIO VSSD VSSIO_Q
* Corner pad has no active circuitry
.ENDS

*----------------------------------------------------------
* sky130_fd_io__com_bus_slice
* SkyWater padframe filler
*----------------------------------------------------------

.SUBCKT sky130_fd_io__com_bus_slice
+ AMUXBUS_A AMUXBUS_B
+ VSSA VDDA VSWITCH VDDIO_Q VCCHIB VDDIO VCCD
+ VSSIO VSSD VSSIO_Q
* Bus filler has no active circuitry
.ENDS

*----------------------------------------------------------
* sky130_ef_io__com_bus_slice_1um
* 1um wide padframe filler
*----------------------------------------------------------

.SUBCKT sky130_ef_io__com_bus_slice_1um
+ AMUXBUS_A AMUXBUS_B
+ VSSA VDDA VSWITCH VDDIO_Q VCCHIB VDDIO VCCD
+ VSSIO VSSD VSSIO_Q
* Bus filler has no active circuitry
.ENDS

*----------------------------------------------------------
* sky130_ef_io__com_bus_slice_5um
* 5um wide padframe filler
*----------------------------------------------------------

.SUBCKT sky130_ef_io__com_bus_slice_5um
+ AMUXBUS_A AMUXBUS_B
+ VSSA VDDA VSWITCH VDDIO_Q VCCHIB VDDIO VCCD
+ VSSIO VSSD VSSIO_Q
* Bus filler has no active circuitry
.ENDS

*----------------------------------------------------------
* sky130_ef_io__com_bus_slice_10um
* 10um wide padframe filler
*----------------------------------------------------------

.SUBCKT sky130_ef_io__com_bus_slice_10um
+ AMUXBUS_A AMUXBUS_B
+ VSSA VDDA VSWITCH VDDIO_Q VCCHIB VDDIO VCCD
+ VSSIO VSSD VSSIO_Q
* Bus filler has no active circuitry
.ENDS

*----------------------------------------------------------
* sky130_ef_io__com_bus_slice_20um
* 20um wide padframe filler
*----------------------------------------------------------

.SUBCKT sky130_ef_io__com_bus_slice_20um
+ AMUXBUS_A AMUXBUS_B
+ VSSA VDDA VSWITCH VDDIO_Q VCCHIB VDDIO VCCD
+ VSSIO VSSD VSSIO_Q
* Bus filler has no active circuitry
.ENDS

*----------------------------------------------------------
* sky130_ef_io__connect_vcchib_vccd_and_vswitch_vddio_slice_20um
* A 20um-wide padframe filler that connects VCCHIB and VCCD as well as
* VSWITCH and VDDIO
*----------------------------------------------------------

.SUBCKT sky130_ef_io__connect_vcchib_vccd_and_vswitch_vddio_slice_20um
+ AMUXBUS_A AMUXBUS_B
+ VSSA VDDA VDDIO_Q VDDIO VCCD VSSIO VSSD VSSIO_Q
* Bus filler has no active circuitry
.ENDS

*----------------------------------------------------------
* sky130_ef_io__disconnect_vdda_slice_5um
* A 5um-wide padframe filler that doesn't connect VDDA
* through it
*----------------------------------------------------------

.SUBCKT sky130_ef_io__disconnect_vdda_slice_5um
+ AMUXBUS_A AMUXBUS_B VSWITCH VDDIO_Q
+ VCCHIB VDDIO VCCD VSSIO VSSD VSSIO_Q
* Bus filler has no active circuitry
.ENDS

*----------------------------------------------------------
* sky130_ef_io__disconnect_vccd_slice_5um
* A 5um-wide padframe filler that doesn't connect VCCD
* through it
*----------------------------------------------------------

.SUBCKT sky130_ef_io__disconnect_vccd_slice_5um
+ AMUXBUS_A AMUXBUS_B VSSA VDDA VSWITCH
+ VDDIO_Q VCCHIB VDDIO VSSIO VSSIO_Q
* Bus filler has no active circuitry
.ENDS

*----------------------------------------------------------
* sky130_ef_io__gpiov2_pad
* Wrapper around SkyWater gpiov2 pad
*----------------------------------------------------------

.SUBCKT sky130_ef_io__gpiov2_pad
+ IN_H PAD_A_NOESD_H PAD_A_ESD_0_H PAD_A_ESD_1_H
+ PAD DM[2] DM[1] DM[0] HLD_H_N IN INP_DIS IB_MODE_SEL ENABLE_H ENABLE_VDDA_H
+ ENABLE_INP_H OE_N TIE_HI_ESD TIE_LO_ESD SLOW VTRIP_SEL HLD_OVR
+ ANALOG_EN ANALOG_SEL ENABLE_VDDIO ENABLE_VSWITCH_H ANALOG_POL OUT
+ AMUXBUS_A AMUXBUS_B VSSA VDDA VSWITCH VDDIO_Q VCCHIB VDDIO VCCD
+ VSSIO VSSD VSSIO_Q

* Instantiate original version with metal4-only power bus
Xgpiov2_base
+ AMUXBUS_A AMUXBUS_B ANALOG_EN ANALOG_POL ANALOG_SEL
+ DM[2] DM[1] DM[0]
+ ENABLE_H ENABLE_INP_H ENABLE_VDDA_H ENABLE_VDDIO ENABLE_VSWITCH_H
+ HLD_H_N HLD_OVR IB_MODE_SEL
+ IN IN_H INP_DIS OE_N OUT
+ PAD PAD_A_ESD_0_H PAD_A_ESD_1_H PAD_A_NOESD_H
+ SLOW TIE_HI_ESD TIE_LO_ESD
+ VCCD VCCHIB VDDA VDDIO VDDIO_Q VSSA VSSD VSSIO VSSIO_Q VSWITCH
+ VTRIP_SEL
+ sky130_fd_io__top_gpiov2

.ENDS

*----------------------------------------------------------
* sky130_ef_io__gpiov2_pad_wrapped
* Wrapper around sky130_ef_io__gpiov2_pad that forces
* the core-facing pins on tracks
*----------------------------------------------------------

.SUBCKT sky130_ef_io__gpiov2_pad_wrapped
+ IN_H PAD_A_NOESD_H PAD_A_ESD_0_H PAD_A_ESD_1_H
+ PAD DM[2] DM[1] DM[0] HLD_H_N IN INP_DIS IB_MODE_SEL ENABLE_H ENABLE_VDDA_H
+ ENABLE_INP_H OE_N TIE_HI_ESD TIE_LO_ESD SLOW VTRIP_SEL HLD_OVR
+ ANALOG_EN ANALOG_SEL ENABLE_VDDIO ENABLE_VSWITCH_H ANALOG_POL OUT
+ AMUXBUS_A AMUXBUS_B VSSA VDDA VSWITCH VDDIO_Q VCCHIB VDDIO VCCD
+ VSSIO VSSD VSSIO_Q

Xgpiov2_ef
+ IN_H PAD_A_NOESD_H PAD_A_ESD_0_H PAD_A_ESD_1_H
+ PAD DM[2] DM[1] DM[0] HLD_H_N IN INP_DIS IB_MODE_SEL ENABLE_H ENABLE_VDDA_H
+ ENABLE_INP_H OE_N TIE_HI_ESD TIE_LO_ESD SLOW VTRIP_SEL HLD_OVR
+ ANALOG_EN ANALOG_SEL ENABLE_VDDIO ENABLE_VSWITCH_H ANALOG_POL OUT
+ AMUXBUS_A AMUXBUS_B VSSA VDDA VSWITCH VDDIO_Q VCCHIB VDDIO VCCD
+ VSSIO VSSD VSSIO_Q sky130_ef_io__gpiov2_pad

.ENDS

*--------------------------------------------------------------------------
* sky130_ef_io__vddio_hvc_clamped_pad
* sky130_ef_io__vddio_hvc_pad with HV clamp connections to VDDIO and VSSIO
*--------------------------------------------------------------------------

.SUBCKT sky130_ef_io__vddio_hvc_clamped_pad
+ AMUXBUS_A AMUXBUS_B
+ VSSA VDDA VSWITCH VDDIO_Q VCCHIB VDDIO VCCD
+ VSSIO VSSD VSSIO_Q

* Instantiate the underlying power pad (connects P_PAD and VDDIO_Q to VDDIO)
Xsky130_fd_io__top_power_hvc_base
+ AMUXBUS_A AMUXBUS_B VDDIO VDDIO
+ VDDIO VDDIO
+ VSSIO VCCD VCCHIB VDDA VDDIO VDDIO_Q
+ VSSA VSSD VSSIO VSSIO_Q VSWITCH
+ sky130_fd_io__top_power_hvc_wpadv2

.ENDS

*--------------------------------------------------------------------------
* sky130_ef_io__vssio_hvc_clamped_pad
* sky130_ef_io__vssio_hvc_pad with HV clamp connections to VDDIO and VSSIO
*--------------------------------------------------------------------------

.SUBCKT sky130_ef_io__vssio_hvc_clamped_pad
+ AMUXBUS_A AMUXBUS_B
+ VSSA VDDA VSWITCH VDDIO_Q VCCHIB VDDIO VCCD
+ VSSIO VSSD VSSIO_Q

* Instantiate the underlying ground pad (connects G_PAD and VSSIO_Q to VSSIO)
Xsky130_fd_io__top_ground_hvc_base
+ AMUXBUS_A AMUXBUS_B VDDIO
+ VSSIO VSSIO
+ VDDIO VSSIO VCCD VCCHIB VDDA VDDIO VDDIO_Q
+ VSSA VSSD VSSIO VSSIO_Q VSWITCH
+ sky130_fd_io__top_ground_hvc_wpad

.ENDS

*--------------------------------------------------------------------------
* sky130_ef_io__vdda_hvc_clamped_pad
* sky130_ef_io__vdda_hvc_pad with HV clamp connections to VDDA and VSSA
*--------------------------------------------------------------------------

.SUBCKT sky130_ef_io__vdda_hvc_clamped_pad
+ AMUXBUS_A AMUXBUS_B
+ VSSA VDDA VSWITCH VDDIO_Q VCCHIB VDDIO VCCD
+ VSSIO VSSD VSSIO_Q

* Instantiate the underlying power pad (connects P_PAD to VDDA)
Xsky130_fd_io__top_power_hvc_base
+ AMUXBUS_A AMUXBUS_B VDDA VDDIO
+ VDDA VDDA
+ VSSA VCCD VCCHIB VDDA VDDIO VDDIO_Q
+ VSSA VSSD VSSIO VSSIO_Q VSWITCH
+ sky130_fd_io__top_power_hvc_wpadv2

.ENDS

*--------------------------------------------------------------------------
* sky130_ef_io__vssa_hvc_clamped_pad
* sky130_ef_io__vssa_hvc_pad with HV clamp connections to VDDA and VSSA
*--------------------------------------------------------------------------

.SUBCKT sky130_ef_io__vssa_hvc_clamped_pad
+ AMUXBUS_A AMUXBUS_B
+ VSSA VDDA VSWITCH VDDIO_Q VCCHIB VDDIO VCCD
+ VSSIO VSSD VSSIO_Q

* Instantiate the underlying ground pad (connects G_PAD to VSSA)
Xsky130_fd_io__top_ground_hvc_base
+ AMUXBUS_A AMUXBUS_B VDDA
+ VSSA VSSA
+ VDDIO VSSA VCCD VCCHIB VDDA VDDIO VDDIO_Q
+ VSSA VSSD VSSIO VSSIO_Q VSWITCH
+ sky130_fd_io__top_ground_hvc_wpad

.ENDS

*--------------------------------------------------------------------------
* sky130_ef_io__vccd_lvc_clamped_pad
* sky130_ef_io__vccd_lvc_pad with LV clamp connections to VCCD/VSSIO and
* VCCD/VSSD, and back-to-back diodes connecting VSSIO to VSSA
*--------------------------------------------------------------------------

.SUBCKT sky130_ef_io__vccd_lvc_clamped2_pad
+ AMUXBUS_A AMUXBUS_B
+ VSSA VDDA VSWITCH VDDIO_Q VCCHIB VDDIO VCCD
+ VSSIO VSSD VSSIO_Q

* Instantiate the underlying power pad (connects P_PAD to VCCD)
Xsky130_fd_io__top_power_lvc_base
+ AMUXBUS_A AMUXBUS_B VSSA VCCD VCCD VDDIO
+ VCCD VCCD
+ VSSIO VSSD VCCD VCCHIB VDDA VDDIO VDDIO_Q
+ VSSA VSSD VSSIO VSSIO_Q VSWITCH
+ sky130_fd_io__top_power_lvc_wpad

.ENDS

*--------------------------------------------------------------------------
* sky130_ef_io__vssd_lvc_clamped_pad
* sky130_ef_io__vssd_lvc_pad with LV clamp connections to VCCD/VSSIO and
* VCCD/VSSD, and back-to-back diodes connecting VSSIO to VSSA
*--------------------------------------------------------------------------

.SUBCKT sky130_ef_io__vssd_lvc_clamped2_pad
+ AMUXBUS_A AMUXBUS_B
+ VSSA VDDA VSWITCH VDDIO_Q VCCHIB VDDIO VCCD
+ VSSIO VSSD VSSIO_Q

* Instantiate the underlying ground pad (connects G_PAD to VSSD)
Xsky130_fd_io__top_ground_lvc_base
+ AMUXBUS_A AMUXBUS_B VSSA VCCD VCCD
+ VSSD VSSD
+ VDDIO VSSIO VSSD VCCD VCCHIB VDDA VDDIO VDDIO_Q
+ VSSA VSSD VSSIO VSSIO_Q VSWITCH
+ sky130_fd_io__top_ground_lvc_wpad

.ENDS

*--------------------------------------------------------------------------
* sky130_ef_io__vccd_lvc_clamped2_pad
* sky130_ef_io__vccd_lvc_pad with LV clamp connections to VCCD and VSSD,
* and back-to-back diodes connecting VSSD to VSSIO
*--------------------------------------------------------------------------

.SUBCKT sky130_ef_io__vccd_lvc_clamped_pad
+ AMUXBUS_A AMUXBUS_B
+ VSSA VDDA VSWITCH VDDIO_Q VCCHIB VDDIO VCCD
+ VSSIO VSSD VSSIO_Q

* Instantiate the underlying power pad (connects P_PAD to VCCD)
Xsky130_fd_io__top_power_lvc_base
+ AMUXBUS_A AMUXBUS_B VSSIO VCCD VCCD VDDIO
+ VCCD VCCD
+ VSSD VSSD VCCD VCCHIB VDDA VDDIO VDDIO_Q
+ VSSA VSSD VSSIO VSSIO_Q VSWITCH
+ sky130_fd_io__top_power_lvc_wpad

.ENDS

*--------------------------------------------------------------------------
* sky130_ef_io__vssd_lvc_clamped2_pad
* sky130_ef_io__vssd_lvc_pad with LV clamp connections to VCCD and VSSD,
* and back-to-back diodes connecting VSSD to VSSIO
*--------------------------------------------------------------------------

.SUBCKT sky130_ef_io__vssd_lvc_clamped_pad
+ AMUXBUS_A AMUXBUS_B
+ VSSA VDDA VSWITCH VDDIO_Q VCCHIB VDDIO VCCD
+ VSSIO VSSD VSSIO_Q

* Instantiate the underlying ground pad (connects G_PAD to VSSD)
Xsky130_fd_io__top_ground_lvc_base
+ AMUXBUS_A AMUXBUS_B VSSIO VCCD VCCD
+ VSSD VSSD
+ VDDIO VSSD VSSD VCCD VCCHIB VDDA VDDIO VDDIO_Q
+ VSSA VSSD VSSIO VSSIO_Q VSWITCH
+ sky130_fd_io__top_ground_lvc_wpad

.ENDS

*--------------------------------------------------------------------------
.SUBCKT icecap c0
*.PININFO c0:B
.ENDS
.SUBCKT sky130_fd_io__amuxsplitv2_switch_levelshifter fbk fbk_n hold reset 
+ switch_lv switch_lv_n vgnd vpwr_hv vpwr_lv
*.PININFO hold:I reset:I switch_lv:I switch_lv_n:I fbk:O fbk_n:O vgnd:B 
*.PININFO vpwr_hv:B vpwr_lv:B
XICEnet97 net97 / icecap
XICEhold hold / icecap
XICEnet105 net105 / icecap
XICEfbk fbk / icecap
XICEfbk_n fbk_n / icecap
XICEreset reset / icecap
XICEnet109 net109 / icecap
XICEnet117 net117 / icecap
XICEswitch_lv_n switch_lv_n / icecap
XICEswitch_lv switch_lv / icecap
mI184 fbk reset vgnd vgnd nhv m=1 w=3.00 l=0.60 mult=1 sa=265e-3 sb=265e-3 
+ sd=280e-3 topography=normal area=0.063 perim=1.14
mI183 net97 vpwr_lv net109 vgnd nhvnative m=4 w=1.00 l=0.90 mult=1 sa=265e-3 
+ sb=265e-3 sd=280e-3 topography=normal area=0.063 perim=1.14
mI18 fbk hold net105 vgnd nhv m=1 w=3.00 l=0.60 mult=1 sa=265e-3 sb=265e-3 
+ sd=280e-3 topography=normal area=0.063 perim=1.14
mI182 net105 vpwr_lv net117 vgnd nhvnative m=4 w=1.00 l=0.90 mult=1 sa=265e-3 
+ sb=265e-3 sd=280e-3 topography=normal area=0.063 perim=1.14
mI16 net109 switch_lv vgnd vgnd nlowvt m=4 w=1.00 l=0.15 mult=1 sa=265e-3 
+ sb=265e-3 sd=280e-3 topography=normal area=0.063 perim=1.14
mI15 fbk_n hold net97 vgnd nhv m=1 w=3.00 l=0.60 mult=1 sa=265e-3 sb=265e-3 
+ sd=280e-3 topography=normal area=0.063 perim=1.14
mI19 net117 switch_lv_n vgnd vgnd nlowvt m=4 w=1.00 l=0.15 mult=1 sa=265e-3 
+ sb=265e-3 sd=280e-3 topography=normal area=0.063 perim=1.14
mI185 fbk_n fbk vpwr_hv vpwr_hv phv m=1 w=0.75 l=0.50 mult=1 sa=265e-3 
+ sb=265e-3 sd=280e-3 topography=normal area=0.063 perim=1.14
mI20 fbk fbk_n vpwr_hv vpwr_hv phv m=1 w=0.75 l=0.50 mult=1 sa=265e-3 
+ sb=265e-3 sd=280e-3 topography=normal area=0.063 perim=1.14
.ENDS
.SUBCKT sky130_fd_io__amuxsplitv2_switch_s0 hold in_lv out_h reset vccd vdda vssa 
+ vssd
*.PININFO hold:I in_lv:I reset:I out_h:O vccd:B vdda:B vssa:B vssd:B
XICEnet17 net17 / icecap
XICEout_h out_h / icecap
XICEreset reset / icecap
XICEin_lv_n in_lv_n / icecap
XICEin_lv_i in_lv_i / icecap
XICEnet13 net13 / icecap
XICEhold hold / icecap
XICEin_lv in_lv / icecap
XI0 net17 net13 hold reset in_lv_i in_lv_n vssa vdda vccd / 
+ sky130_fd_io__amuxsplitv2_switch_levelshifter
mI22 in_lv_n in_lv vssd vssd nshort m=1 w=1.00 l=0.25 mult=1 sa=265e-3 
+ sb=265e-3 sd=280e-3 topography=normal area=0.063 perim=1.14
mI21 in_lv_i in_lv_n vssd vssd nshort m=1 w=1.00 l=0.25 mult=1 sa=265e-3 
+ sb=265e-3 sd=280e-3 topography=normal area=0.063 perim=1.14
mI16 out_h net13 vssa vssa nhv m=1 w=1.00 l=0.60 mult=1 sa=265e-3 sb=265e-3 
+ sd=280e-3 topography=normal area=0.063 perim=1.14
mI20 in_lv_n in_lv vccd vccd phighvt m=1 w=1.00 l=0.25 mult=1 sa=265e-3 
+ sb=265e-3 sd=280e-3 topography=normal area=0.063 perim=1.14
mI19 in_lv_i in_lv_n vccd vccd phighvt m=1 w=1.00 l=0.25 mult=1 sa=265e-3 
+ sb=265e-3 sd=280e-3 topography=normal area=0.063 perim=1.14
mI15 out_h net13 vdda vdda phv m=1 w=3.00 l=0.60 mult=1 sa=265e-3 sb=265e-3 
+ sd=280e-3 topography=normal area=0.063 perim=1.14
.ENDS
.SUBCKT sky130_fd_io__amuxsplitv2_switch_sl hold in_lv out_h out_h_n reset vccd 
+ vdda vssa vssd vswitch
*.PININFO hold:I in_lv:I reset:I out_h:O out_h_n:O vccd:B vdda:B vssa:B vssd:B 
*.PININFO vswitch:B
XICEin_lv_i in_lv_i / icecap
XICEin_lv_n in_lv_n / icecap
XICEnet39 net39 / icecap
XICEhold hold / icecap
XICEout_h_n out_h_n / icecap
XICEout_h out_h / icecap
XICEnet48 net48 / icecap
XICEnet44 net44 / icecap
XICEin_lv in_lv / icecap
XICEnet35 net35 / icecap
XICEreset reset / icecap
mI14 out_h net44 vswitch vswitch phv m=1 w=3.00 l=0.60 mult=1 sa=265e-3 
+ sb=265e-3 sd=280e-3 topography=normal area=0.063 perim=1.14
mI15 out_h_n net39 vdda vdda phv m=1 w=3.00 l=0.60 mult=1 sa=265e-3 sb=265e-3 
+ sd=280e-3 topography=normal area=0.063 perim=1.14
mI19 in_lv_i in_lv_n vccd vccd phighvt m=1 w=1.00 l=0.25 mult=1 sa=265e-3 
+ sb=265e-3 sd=280e-3 topography=normal area=0.063 perim=1.14
mI20 in_lv_n in_lv vccd vccd phighvt m=1 w=1.00 l=0.25 mult=1 sa=265e-3 
+ sb=265e-3 sd=280e-3 topography=normal area=0.063 perim=1.14
mI13 out_h net44 vssa vssa nhv m=1 w=1.00 l=0.60 mult=1 sa=265e-3 sb=265e-3 
+ sd=280e-3 topography=normal area=0.063 perim=1.14
mI16 out_h_n net39 vssa vssa nhv m=1 w=1.00 l=0.60 mult=1 sa=265e-3 sb=265e-3 
+ sd=280e-3 topography=normal area=0.063 perim=1.14
mI21 in_lv_i in_lv_n vssd vssd nshort m=1 w=1.00 l=0.25 mult=1 sa=265e-3 
+ sb=265e-3 sd=280e-3 topography=normal area=0.063 perim=1.14
mI22 in_lv_n in_lv vssd vssd nshort m=1 w=1.00 l=0.25 mult=1 sa=265e-3 
+ sb=265e-3 sd=280e-3 topography=normal area=0.063 perim=1.14
XI0 net39 net35 hold reset in_lv_i in_lv_n vssa vdda vccd / 
+ sky130_fd_io__amuxsplitv2_switch_levelshifter
XI1 net48 net44 hold reset in_lv_i in_lv_n vssa vswitch vccd / 
+ sky130_fd_io__amuxsplitv2_switch_levelshifter
.ENDS
* .SUBCKT s8_esd_res75only_small pad rout
* *.PININFO pad:B rout:B
* rI175 pad rout mrp1 m=1 w=2 l=3.15
* .ENDS
.SUBCKT sky130_fd_io__amuxsplitv2_switch amuxbus_l amuxbus_r ngate_sl_h ngate_sr_h 
+ nmid_h pgate_sl_h_n pgate_sr_h_n vdda vssa
*.PININFO ngate_sl_h:I ngate_sr_h:I nmid_h:I pgate_sl_h_n:I pgate_sr_h_n:I 
*.PININFO amuxbus_l:B amuxbus_r:B vdda:B vssa:B
XICEpgate_sl_h_n pgate_sl_h_n / icecap
XICEpgate_sr_h_n pgate_sr_h_n / icecap
XICEnmid_h nmid_h / icecap
XICEngate_sl_h ngate_sl_h / icecap
XICEamuxbus_l amuxbus_l / icecap
XICEngate_sr_h ngate_sr_h / icecap
XICEnmid_h_s nmid_h_s / icecap
XICEamuxbus_r amuxbus_r / icecap
XICEmid mid / icecap
xI20 mid vdda condiode
xI19 vssa vdda condiode
XI18 vssa nmid_h_s / s8_esd_res75only_small
mI1 amuxbus_l ngate_sl_h mid mid nhv m=30 w=10.0 l=0.50 mult=1 sa=265e-3 
+ sb=265e-3 sd=280e-3 topography=normal area=0.063 perim=1.14
mI2 mid ngate_sr_h amuxbus_r mid nhv m=30 w=10.0 l=0.50 mult=1 sa=265e-3 
+ sb=265e-3 sd=280e-3 topography=normal area=0.063 perim=1.14
mI4 mid nmid_h nmid_h_s vssa nhv m=2 w=5.00 l=0.50 mult=1 sa=265e-3 sb=265e-3 
+ sd=280e-3 topography=normal area=0.063 perim=1.14
mI0 mid pgate_sl_h_n amuxbus_l vdda phv m=14 w=10.0 l=0.50 mult=1 sa=265e-3 
+ sb=265e-3 sd=280e-3 topography=normal area=0.063 perim=1.14
mI3 amuxbus_r pgate_sr_h_n mid vdda phv m=14 w=10.0 l=0.50 mult=1 sa=265e-3 
+ sb=265e-3 sd=280e-3 topography=normal area=0.063 perim=1.14
.ENDS
* .SUBCKT sky130_fd_io__hvsbt_nand2 in0 in1 out vgnd vpwr
* *.PININFO in0:I in1:I vgnd:I vpwr:I out:O
* XICEout out / icecap
* XICEin0 in0 / icecap
* XICEin1 in1 / icecap
* mI3 out in0 vpwr vpwr phv m=2 w=1.00 l=0.60 mult=1 sa=265e-3 sb=265e-3 
* + sd=280e-3 topography=normal area=0.063 perim=1.14
* mI5 out in1 vpwr vpwr phv m=2 w=1.00 l=0.60 mult=1 sa=265e-3 sb=265e-3 
* + sd=280e-3 topography=normal area=0.063 perim=1.14
* mI1 out in1 net25 vgnd nhv m=1 w=0.70 l=0.60 mult=1 sa=265e-3 sb=265e-3 
* + sd=280e-3 topography=normal area=0.063 perim=1.14
* mI6 net25 in0 vgnd vgnd nhv m=1 w=0.70 l=0.60 mult=1 sa=265e-3 sb=265e-3 
* + sd=280e-3 topography=normal area=0.063 perim=1.14
* .ENDS
.SUBCKT sky130_fd_io__amuxsplitv2_delay enable_vdda_h hld_vdda_h_n hold reset 
+ vcc_io vgnd
*.PININFO enable_vdda_h:I hld_vdda_h_n:I hold:O reset:O vcc_io:B vgnd:B
XICEhold hold / icecap
XICEhld_vdda_h hld_vdda_h / icecap
XICEreset reset / icecap
XICEenable_vdda_h_n enable_vdda_h_n / icecap
XICEenable_vdda_h enable_vdda_h / icecap
XICEhld_vdda_h_n_switch hld_vdda_h_n_switch / icecap
XICEhld_vdda_h_n hld_vdda_h_n / icecap
XICEenable_vdda_switch enable_vdda_switch / icecap
XI33 enable_vdda_switch hld_vdda_h_n_switch reset vgnd vcc_io / 
+ sky130_fd_io__hvsbt_nand2
mI29 hld_vdda_h_n_switch hld_vdda_h vcc_io vcc_io phv m=2 w=3.00 l=0.60 mult=1 
+ sa=265e-3 sb=265e-3 sd=280e-3 topography=normal area=0.063 perim=1.14
mI28 hld_vdda_h hld_vdda_h_n vcc_io vcc_io phv m=1 w=3.00 l=0.60 mult=1 
+ sa=265e-3 sb=265e-3 sd=280e-3 topography=normal area=0.063 perim=1.14
mI12 enable_vdda_switch enable_vdda_h_n vcc_io vcc_io phv m=2 w=3.00 l=0.60 
+ mult=1 sa=265e-3 sb=265e-3 sd=280e-3 topography=normal area=0.063 perim=1.14
mI13 enable_vdda_h_n enable_vdda_h vcc_io vcc_io phv m=1 w=3.00 l=0.60 mult=1 
+ sa=265e-3 sb=265e-3 sd=280e-3 topography=normal area=0.063 perim=1.14
mI36 hold reset vcc_io vcc_io phv m=1 w=3.00 l=0.60 mult=1 sa=265e-3 sb=265e-3 
+ sd=280e-3 topography=normal area=0.063 perim=1.14
mI31 hld_vdda_h_n_switch hld_vdda_h vgnd vgnd nhv m=2 w=1.00 l=0.60 mult=1 
+ sa=265e-3 sb=265e-3 sd=280e-3 topography=normal area=0.063 perim=1.14
mI30 hld_vdda_h hld_vdda_h_n vgnd vgnd nhv m=1 w=1.00 l=0.60 mult=1 sa=265e-3 
+ sb=265e-3 sd=280e-3 topography=normal area=0.063 perim=1.14
mI14 enable_vdda_switch enable_vdda_h_n vgnd vgnd nhv m=2 w=1.00 l=0.60 mult=1 
+ sa=265e-3 sb=265e-3 sd=280e-3 topography=normal area=0.063 perim=1.14
mI15 enable_vdda_h_n enable_vdda_h vgnd vgnd nhv m=1 w=1.00 l=0.60 mult=1 
+ sa=265e-3 sb=265e-3 sd=280e-3 topography=normal area=0.063 perim=1.14
mI37 hold reset vgnd vgnd nhv m=1 w=1.00 l=0.60 mult=1 sa=265e-3 sb=265e-3 
+ sd=280e-3 topography=normal area=0.063 perim=1.14
.ENDS
.SUBCKT sky130_fd_io__top_amuxsplitv2 amuxbus_a_l amuxbus_a_r amuxbus_b_l 
+ amuxbus_b_r enable_vdda_h hld_vdda_h_n switch_aa_s0 switch_aa_sl 
+ switch_aa_sr switch_bb_s0 switch_bb_sl switch_bb_sr vccd vcchib vdda vddio 
+ vddio_q vssa vssd vssio vssio_q vswitch
*.PININFO enable_vdda_h:I hld_vdda_h_n:I switch_aa_s0:I switch_aa_sl:I 
*.PININFO switch_aa_sr:I switch_bb_s0:I switch_bb_sl:I switch_bb_sr:I 
*.PININFO amuxbus_a_l:B amuxbus_a_r:B amuxbus_b_l:B amuxbus_b_r:B vccd:B 
*.PININFO vcchib:B vdda:B vddio:B vddio_q:B vssa:B vssd:B vssio:B vssio_q:B 
*.PININFO vswitch:B
xI22 vssa vdda condiode
XI18 hold switch_aa_s0 ng_vdda_aa_s0_h reset vccd vdda vssa vssd / 
+ sky130_fd_io__amuxsplitv2_switch_s0
XI348 hold switch_bb_s0 ng_vdda_bb_s0_h reset vccd vdda vssa vssd / 
+ sky130_fd_io__amuxsplitv2_switch_s0
XI347 hold switch_aa_sl ng_vswitch_aa_sl_h pg_vdda_aa_sl_h_n reset vccd vdda 
+ vssa vssd vswitch / sky130_fd_io__amuxsplitv2_switch_sl
XI24 hold switch_aa_sr ng_vswitch_aa_sr_h pg_vdda_aa_sr_h_n reset vccd vdda 
+ vssa vssd vswitch / sky130_fd_io__amuxsplitv2_switch_sl
XI349 hold switch_bb_sr ng_vswitch_bb_sr_h pg_vdda_bb_sr_h_n reset vccd vdda 
+ vssa vssd vswitch / sky130_fd_io__amuxsplitv2_switch_sl
XI350 hold switch_bb_sl ng_vswitch_bb_sl_h pg_vdda_bb_sl_h_n reset vccd vdda 
+ vssa vssd vswitch / sky130_fd_io__amuxsplitv2_switch_sl
XI6 amuxbus_a_l amuxbus_a_r ng_vswitch_aa_sl_h ng_vswitch_aa_sr_h 
+ ng_vdda_aa_s0_h pg_vdda_aa_sl_h_n pg_vdda_aa_sr_h_n vdda vssa / 
+ sky130_fd_io__amuxsplitv2_switch
XI8 amuxbus_b_l amuxbus_b_r ng_vswitch_bb_sl_h ng_vswitch_bb_sr_h 
+ ng_vdda_bb_s0_h pg_vdda_bb_sl_h_n pg_vdda_bb_sr_h_n vdda vssa / 
+ sky130_fd_io__amuxsplitv2_switch
XI342 enable_vdda_h hld_vdda_h_n hold reset vdda vssa / 
+ sky130_fd_io__amuxsplitv2_delay
XICEnet27 enable_vdda_h / icecap
XICEamuxbus_b_r amuxbus_b_r / icecap