* SPICE NETLIST
***************************************

.SUBCKT MN g s d b
.ENDS
***************************************
.SUBCKT MP g s d b
.ENDS
***************************************
.SUBCKT condiode pin0 pin1
.ENDS
***************************************
.SUBCKT condiodeHvPsub pin0 pin1
.ENDS
***************************************
.SUBCKT nvhv pin0 pin1 pin2 pin3
.ENDS
***************************************
.SUBCKT n20vhv1 pin0 pin1 pin2 pin3
.ENDS
***************************************
.SUBCKT n20nativevhv1 pin0 pin1 pin2 pin3
.ENDS
***************************************
.SUBCKT n20vhviso1 pin0 pin1 pin2 pin3 pin4
.ENDS
***************************************
.SUBCKT n20nativevhviso1 pin0 pin1 pin2 pin3 pin4
.ENDS
***************************************
.SUBCKT pvhv pin0 pin1 pin2 pin3
.ENDS
***************************************
.SUBCKT p20vhv1 pin0 pin1 pin2 pin3
.ENDS
***************************************
.SUBCKT xcnwvc pin0 pin1 pin2
.ENDS
***************************************
.SUBCKT xcnwvc2 pin0 pin1 pin2
.ENDS
***************************************
.SUBCKT xchvnwc pin0 pin1 pin2
.ENDS
***************************************
.SUBCKT Dpar d0 d1
.ENDS
***************************************
.SUBCKT xcmvpp pin0 pin1 pin2
.ENDS
***************************************
.SUBCKT xcmvpp_2 pin0 pin1 pin2
.ENDS
***************************************
.SUBCKT xcmvpp2_nhvnative10x4 pin0 pin1 pin2
.ENDS
***************************************
.SUBCKT xcmvpp2_phv5x4 pin0 pin1 pin2
.ENDS
***************************************
.SUBCKT xcmvpp_hd5_atlas_fingercap2_l5 pin0 pin1 pin2
.ENDS
***************************************
.SUBCKT xcmvpp_hd5_atlas_wafflecap2 pin0 pin1 pin2
.ENDS
***************************************
.SUBCKT xcmvpp_hd5_atlas_wafflecap1 pin0 pin1 pin2
.ENDS
***************************************
.SUBCKT xcmvpp_hd5_atlas_fingercap_l40 pin0 pin1 pin2
.ENDS
***************************************
.SUBCKT xcmvpp_hd5_atlas_fingercap_l20 pin0 pin1 pin2
.ENDS
***************************************
.SUBCKT xcmvpp_hd5_atlas_fingercap_l10 pin0 pin1 pin2
.ENDS
***************************************
.SUBCKT xcmvpp_hd5_atlas_fingercap_l5 pin0 pin1 pin2
.ENDS
***************************************
.SUBCKT xcmvpp_hd5_5x2_met5pullin pin0 pin1 pin2
.ENDS
***************************************
.SUBCKT xcmvpp_hd5_5x2 pin0 pin1 pin2
.ENDS
***************************************
.SUBCKT xcmvpp_hd5_5x1_met5pullin pin0 pin1 pin2
.ENDS
***************************************
.SUBCKT xcmvpp_hd5_5x1 pin0 pin1 pin2
.ENDS
***************************************
.SUBCKT xcmvpp_hd5_4x2 pin0 pin1 pin2
.ENDS
***************************************
.SUBCKT xcmvpp_hd5_4x1 pin0 pin1 pin2
.ENDS
***************************************
.SUBCKT xcmvpp_hd5_3x2 pin0 pin1 pin2
.ENDS
***************************************
.SUBCKT xcmvpp_hd5_3x1 pin0 pin1 pin2
.ENDS
***************************************
.SUBCKT xcmvpp_hd5_2x2 pin0 pin1 pin2
.ENDS
***************************************
.SUBCKT xcmvpp_hd5_2x1 pin0 pin1 pin2
.ENDS
***************************************
.SUBCKT xcmvpp_hd5_1x2 pin0 pin1 pin2
.ENDS
***************************************
.SUBCKT xcmvpp_hd5_1x1 pin0 pin1 pin2
.ENDS
***************************************
.SUBCKT xcmvppx4_2xnhvnative10x4 pin0 pin1 pin2 pin3
.ENDS
***************************************
.SUBCKT xcmvpp11p5x11p7_polym50p4shield pin0 pin1 pin2 pin3
.ENDS
***************************************
.SUBCKT xcmvpp4p4x4p6_m3_lim5shield pin0 pin1 pin2 pin3
.ENDS
***************************************
.SUBCKT xcmvpp11p5x11p7_m3_lim5shield pin0 pin1 pin2 pin3
.ENDS
***************************************
.SUBCKT xcmvpp8p6x7p9_m3_lim5shield pin0 pin1 pin2 pin3
.ENDS
***************************************
.SUBCKT xcmvpp11p5x11p7_lim5shield pin0 pin1 pin2 pin3
.ENDS
***************************************
.SUBCKT xcmvpp11p5x11p7_polym5shield pin0 pin1 pin2 pin3
.ENDS
***************************************
.SUBCKT xcmvpp11p5x11p7_m5shield pin0 pin1 pin2 pin3
.ENDS
***************************************
.SUBCKT xcmvpp6p8x6p1_lim4shield pin0 pin1 pin2 pin3
.ENDS
***************************************
.SUBCKT xcmvpp6p8x6p1_polym4shield pin0 pin1 pin2 pin3
.ENDS
***************************************
.SUBCKT xcmvpp11p5x11p7_polym4shield pin0 pin1 pin2 pin3
.ENDS
***************************************
.SUBCKT xcmvpp11p5x11p7_m4shield pin0 pin1 pin2 pin3
.ENDS
***************************************
.SUBCKT xcmvpp1p8x1p8 pin0 pin1 pin2
.ENDS
***************************************
.SUBCKT xcmvpp4p4x4p6_m3_lishield pin0 pin1 pin2
.ENDS
***************************************
.SUBCKT xcmvpp8p6x7p9_m3_lishield pin0 pin1 pin2
.ENDS
***************************************
.SUBCKT xcmvpp11p5x11p7_m3_lishield pin0 pin1 pin2
.ENDS
***************************************
.SUBCKT xcmvpp11p5x11p7_m3shield c0 c1 b term4
.ENDS
***************************************
.SUBCKT xcmvpp8p6x7p9_m3shield c0 c1 b term4
.ENDS
***************************************
.SUBCKT xcmvpp4p4x4p6_m3shield c0 c1 b term4
.ENDS
***************************************
.SUBCKT xcmvpp1p8x1p8_m3shield c0 c1 b term4
.ENDS
***************************************
.SUBCKT xcmvpp11p5x11p7_m1m4m5shield pin0 pin1 pin2 pin3
.ENDS
***************************************
.SUBCKT xcmvpp11p5x11p7_m1m4 pin0 pin1 pin2
.ENDS
***************************************
.SUBCKT xcmvpp11p5x11p7_m1m2 pin0 pin1 pin2
.ENDS
***************************************
.SUBCKT xcmvpp4p4x4p6_m1m2 pin0 pin1 pin2
.ENDS
***************************************
.SUBCKT xcmvpp5 pin0 pin1 pin2
.ENDS
***************************************
.SUBCKT xcmvpp4 pin0 pin1 pin2
.ENDS
***************************************
.SUBCKT xcmvpp3 pin0 pin1 pin2
.ENDS
***************************************
.SUBCKT balun pin0 pin1 pin2 pin3 pin4 pin5
.ENDS
***************************************
.SUBCKT ind4 pin0 pin1 pin2 pin3
.ENDS
***************************************
.SUBCKT xhrpoly_0p35 POS NEG SUB
.ENDS
***************************************
.SUBCKT xuhrpoly_0p35 POS NEG SUB
.ENDS
***************************************
.SUBCKT xhrpoly_0p69 POS NEG SUB
.ENDS
***************************************
.SUBCKT xuhrpoly_0p69 POS NEG SUB
.ENDS
***************************************
.SUBCKT xhrpoly_1p41 POS NEG SUB
.ENDS
***************************************
.SUBCKT xuhrpoly_1p41 POS NEG SUB
.ENDS
***************************************
.SUBCKT xhrpoly_2p85 POS NEG SUB
.ENDS
***************************************
.SUBCKT xuhrpoly_2p85 POS NEG SUB
.ENDS
***************************************
.SUBCKT xhrpoly_5p73 POS NEG SUB
.ENDS
***************************************
.SUBCKT xuhrpoly_5p73 POS NEG SUB
.ENDS
***************************************
.SUBCKT Probe probe conductor
.ENDS
***************************************
.SUBCKT sky130_fd_pr__nfet_01v8__example_55959141808592 1 2 3 4
** N=11 EP=4 IP=0 FDC=1
M0 4 2 3 1 nhv L=0.5 W=0.42 AD=0.1176 AS=0.1176 PD=1.4 PS=1.4 NRD=0 NRS=0 m=1 r=0.84 sa=250000 sb=250000 a=0.21 p=1.84 mult=1 $X=0 $Y=0 $D=49
.ENDS
***************************************
.SUBCKT sky130_fd_pr__hvdfl1sd2__example_55959141808306
** N=10 EP=0 IP=0 FDC=0
.ENDS
***************************************
.SUBCKT sky130_fd_pr__nfet_01v8__example_55959141808593 1 2 3 4
** N=25 EP=4 IP=20 FDC=1
M0 4 2 3 1 nhv L=0.5 W=3 AD=0.84 AS=0.84 PD=6.56 PS=6.56 NRD=0 NRS=0 m=1 r=6 sa=250000 sb=250000 a=1.5 p=7 mult=1 $X=0 $Y=0 $D=49
.ENDS
***************************************
.SUBCKT sky130_fd_pr__hvdfl1sd2__example_55959141808378
** N=16 EP=0 IP=0 FDC=0
.ENDS
***************************************
.SUBCKT ICV_1
** N=2 EP=0 IP=4 FDC=0
.ENDS
***************************************
.SUBCKT sky130_fd_io__res75only_small PAD ROUT
** N=24 EP=2 IP=0 FDC=1
R0 PAD ROUT L=3.15 W=2 m=1 mult=1 model="mrp1" $[mrp1] $X=630 $Y=10 $D=257
.ENDS
***************************************
.SUBCKT sky130_fd_pr__hvdfl1sd2__example_55959141808559
** N=22 EP=0 IP=0 FDC=0
.ENDS
***************************************
.SUBCKT ICV_2
** N=2 EP=0 IP=4 FDC=0
.ENDS
***************************************
.SUBCKT sky130_fd_pr__hvdfm1sd2__example_55959141808251
** N=22 EP=0 IP=0 FDC=0
.ENDS
***************************************
.SUBCKT sky130_fd_pr__dfm1sd2__example_55959141808561
** N=22 EP=0 IP=0 FDC=0
.ENDS
***************************************
.SUBCKT sky130_fd_pr__nfet_01v8__example_55959141808560 1 2 3 4 5
** N=33 EP=5 IP=16 FDC=7
M0 5 2 3 1 nhv L=0.5 W=7 AD=0.98 AS=2.205 PD=7.28 PS=14.63 NRD=0 NRS=0.5586 m=1 r=14 sa=250000 sb=250005 a=3.5 p=15 mult=1 $X=0 $Y=0 $D=49
M1 3 2 5 1 nhv L=0.5 W=7 AD=1.225 AS=0.98 PD=7.35 PS=7.28 NRD=0.5586 NRS=0 m=1 r=14 sa=250001 sb=250004 a=3.5 p=15 mult=1 $X=780 $Y=0 $D=49
M2 5 2 3 1 nhv L=0.5 W=7 AD=0.98 AS=1.225 PD=7.28 PS=7.35 NRD=0 NRS=0.5586 m=1 r=14 sa=250002 sb=250003 a=3.5 p=15 mult=1 $X=1630 $Y=0 $D=49
M3 4 2 5 1 nhv L=0.5 W=7 AD=1.225 AS=0.98 PD=7.35 PS=7.28 NRD=0.5586 NRS=0 m=1 r=14 sa=250002 sb=250003 a=3.5 p=15 mult=1 $X=2410 $Y=0 $D=49
M4 5 2 4 1 nhv L=0.5 W=7 AD=0.98 AS=1.225 PD=7.28 PS=7.35 NRD=0 NRS=0.5586 m=1 r=14 sa=250003 sb=250002 a=3.5 p=15 mult=1 $X=3260 $Y=0 $D=49
M5 4 2 5 1 nhv L=0.5 W=7 AD=1.225 AS=0.98 PD=7.35 PS=7.28 NRD=0.5586 NRS=0 m=1 r=14 sa=250004 sb=250001 a=3.5 p=15 mult=1 $X=4040 $Y=0 $D=49
M6 5 2 4 1 nhv L=0.5 W=7 AD=1.96 AS=1.225 PD=14.56 PS=7.35 NRD=0 NRS=0.5586 m=1 r=14 sa=250005 sb=250000 a=3.5 p=15 mult=1 $X=4890 $Y=0 $D=49
.ENDS
***************************************
.SUBCKT sky130_fd_pr__hvdfm1sd2__example_55959141808563
** N=23 EP=0 IP=0 FDC=0
*.SEEDPROM
.ENDS
***************************************
.SUBCKT ICV_3
** N=4 EP=0 IP=6 FDC=0
*.SEEDPROM
.ENDS
***************************************
.SUBCKT sky130_fd_io__amux_switch_1v2b VSSD 3 6 VDDIO VDDA PG_PAD_VDDIOQ_H_N PG_AMX_VDDA_H_N NG_AMX_VPMP_H NG_PAD_VPMP_H PAD_HV_P0 PAD_HV_P1 AMUXBUS_HV PAD_HV_N2 PAD_HV_N3 PAD_HV_N0 PAD_HV_N1
** N=1659 EP=16 IP=54 FDC=46
*.SEEDPROM
M0 PAD_HV_N2 NG_PAD_VPMP_H 6 6 nhv L=0.5 W=7 AD=0.98 AS=2.205 PD=7.28 PS=14.63 NRD=0 NRS=0.5586 m=1 r=14 sa=250000 sb=250006 a=3.5 p=15 mult=1 $X=42660 $Y=2715 $D=49
M1 6 NG_PAD_VPMP_H PAD_HV_N2 6 nhv L=0.5 W=7 AD=1.225 AS=0.98 PD=7.35 PS=7.28 NRD=0.5586 NRS=0 m=1 r=14 sa=250001 sb=250005 a=3.5 p=15 mult=1 $X=43440 $Y=2715 $D=49
M2 PAD_HV_N2 NG_PAD_VPMP_H 6 6 nhv L=0.5 W=7 AD=0.98 AS=1.225 PD=7.28 PS=7.35 NRD=0 NRS=0.5586 m=1 r=14 sa=250002 sb=250004 a=3.5 p=15 mult=1 $X=44290 $Y=2715 $D=49
M3 6 NG_PAD_VPMP_H PAD_HV_N2 6 nhv L=0.5 W=7 AD=1.225 AS=0.98 PD=7.35 PS=7.28 NRD=0.5586 NRS=0 m=1 r=14 sa=250002 sb=250003 a=3.5 p=15 mult=1 $X=45070 $Y=2715 $D=49
M4 PAD_HV_N3 NG_PAD_VPMP_H 6 6 nhv L=0.5 W=7 AD=0.98 AS=1.225 PD=7.28 PS=7.35 NRD=0 NRS=0.5586 m=1 r=14 sa=250003 sb=250002 a=3.5 p=15 mult=1 $X=45920 $Y=2715 $D=49
M5 6 NG_PAD_VPMP_H PAD_HV_N3 6 nhv L=0.5 W=7 AD=1.225 AS=0.98 PD=7.35 PS=7.28 NRD=0.5586 NRS=0 m=1 r=14 sa=250004 sb=250002 a=3.5 p=15 mult=1 $X=46700 $Y=2715 $D=49
M6 PAD_HV_N3 NG_PAD_VPMP_H 6 6 nhv L=0.5 W=7 AD=0.98 AS=1.225 PD=7.28 PS=7.35 NRD=0 NRS=0.5586 m=1 r=14 sa=250005 sb=250001 a=3.5 p=15 mult=1 $X=47550 $Y=2715 $D=49
M7 6 NG_PAD_VPMP_H PAD_HV_N3 6 nhv L=0.5 W=7 AD=2.205 AS=0.98 PD=14.63 PS=7.28 NRD=0.5586 NRS=0 m=1 r=14 sa=250006 sb=250000 a=3.5 p=15 mult=1 $X=48330 $Y=2715 $D=49
M8 3 PG_PAD_VDDIOQ_H_N PAD_HV_P0 VDDIO phv L=0.5 W=7 AD=0.98 AS=2.205 PD=7.28 PS=14.63 NRD=0 NRS=0.9359 m=1 r=14 sa=250000 sb=250004 a=3.5 p=15 mult=1 $X=2070 $Y=2375 $D=109
M9 PAD_HV_P0 PG_PAD_VDDIOQ_H_N 3 VDDIO phv L=0.5 W=7 AD=1.225 AS=0.98 PD=7.35 PS=7.28 NRD=0.9359 NRS=0 m=1 r=14 sa=250001 sb=250003 a=3.5 p=15 mult=1 $X=2850 $Y=2375 $D=109
M10 3 PG_PAD_VDDIOQ_H_N PAD_HV_P0 VDDIO phv L=0.5 W=7 AD=0.98 AS=1.225 PD=7.28 PS=7.35 NRD=0 NRS=0.9359 m=1 r=14 sa=250002 sb=250002 a=3.5 p=15 mult=1 $X=3700 $Y=2375 $D=109
M11 PAD_HV_P1 PG_PAD_VDDIOQ_H_N 3 VDDIO phv L=0.5 W=7 AD=1.225 AS=0.98 PD=7.35 PS=7.28 NRD=0.9359 NRS=0 m=1 r=14 sa=250002 sb=250002 a=3.5 p=15 mult=1 $X=4480 $Y=2375 $D=109
M12 3 PG_PAD_VDDIOQ_H_N PAD_HV_P1 VDDIO phv L=0.5 W=7 AD=0.98 AS=1.225 PD=7.28 PS=7.35 NRD=0 NRS=0.9359 m=1 r=14 sa=250003 sb=250001 a=3.5 p=15 mult=1 $X=5330 $Y=2375 $D=109
M13 PAD_HV_P1 PG_PAD_VDDIOQ_H_N 3 VDDIO phv L=0.5 W=7 AD=2.205 AS=0.98 PD=14.63 PS=7.28 NRD=0.9359 NRS=0 m=1 r=14 sa=250004 sb=250000 a=3.5 p=15 mult=1 $X=6110 $Y=2375 $D=109
M14 3 PG_AMX_VDDA_H_N AMUXBUS_HV VDDA phv L=0.5 W=7 AD=1.225 AS=1.96 PD=7.35 PS=14.56 NRD=0.9359 NRS=0 m=1 r=14 sa=250000 sb=250003 a=3.5 p=15 mult=1 $X=11455 $Y=2375 $D=109
M15 AMUXBUS_HV PG_AMX_VDDA_H_N 3 VDDA phv L=0.5 W=7 AD=0.98 AS=1.225 PD=7.28 PS=7.35 NRD=0 NRS=0.9359 m=1 r=14 sa=250001 sb=250002 a=3.5 p=15 mult=1 $X=12305 $Y=2375 $D=109
M16 3 PG_AMX_VDDA_H_N AMUXBUS_HV VDDA phv L=0.5 W=7 AD=1.225 AS=0.98 PD=7.35 PS=7.28 NRD=0.9359 NRS=0 m=1 r=14 sa=250002 sb=250002 a=3.5 p=15 mult=1 $X=13085 $Y=2375 $D=109
M17 AMUXBUS_HV PG_AMX_VDDA_H_N 3 VDDA phv L=0.5 W=7 AD=0.98 AS=1.225 PD=7.28 PS=7.35 NRD=0 NRS=0.9359 m=1 r=14 sa=250003 sb=250001 a=3.5 p=15 mult=1 $X=13935 $Y=2375 $D=109
M18 3 PG_AMX_VDDA_H_N AMUXBUS_HV VDDA phv L=0.5 W=7 AD=2.205 AS=0.98 PD=14.63 PS=7.28 NRD=0.9359 NRS=0 m=1 r=14 sa=250003 sb=250000 a=3.5 p=15 mult=1 $X=14715 $Y=2375 $D=109
X19 3 VDDA condiode a=1e-06 p=0.004 m=1 ahftempperim=0.004 $X=25715 $Y=10775 $D=150
X20 6 VDDA condiode a=1e-06 p=0.004 m=1 ahftempperim=0.004 $X=40885 $Y=10825 $D=150
X21 VSSD VDDIO Dpar a=64.774 p=32.54 m=1 $[nwdiode] $X=850 $Y=1470 $D=191
X22 VSSD VDDA Dpar a=66.495 p=33.14 m=1 $[nwdiode] $X=9925 $Y=1120 $D=191
X23 3 VDDA Dpar a=141.419 p=48.37 m=1 $[dnwdiode_pw] $X=19595 $Y=1065 $D=194
X24 6 VDDA Dpar a=144.747 p=49.61 m=1 $[dnwdiode_pw] $X=35050 $Y=1575 $D=194
X30 3 NG_AMX_VPMP_H AMUXBUS_HV AMUXBUS_HV 3 sky130_fd_pr__nfet_01v8__example_55959141808560 $T=26270 2375 1 180 $X=20420 $Y=2195
X31 3 NG_PAD_VPMP_H PAD_HV_N0 PAD_HV_N1 3 sky130_fd_pr__nfet_01v8__example_55959141808560 $T=27235 2375 0 0 $X=26740 $Y=2195
X32 6 NG_AMX_VPMP_H 6 6 AMUXBUS_HV sky130_fd_pr__nfet_01v8__example_55959141808560 $T=41695 2715 1 180 $X=35845 $Y=2535
.ENDS
***************************************
.SUBCKT sky130_fd_pr__hvdfl1sd2__example_55959141808178
** N=47 EP=0 IP=0 FDC=0
*.SEEDPROM
.ENDS
***************************************
.SUBCKT sky130_fd_pr__hvdfl1sd__example_55959141808278
** N=6 EP=0 IP=0 FDC=0
.ENDS
***************************************
.SUBCKT sky130_fd_pr__hvdfl1sd2__example_55959141808462
** N=6 EP=0 IP=0 FDC=0
.ENDS
***************************************
.SUBCKT sky130_fd_pr__nfet_01v8__example_55959141808583
** N=18 EP=0 IP=14 FDC=0
*.SEEDPROM
.ENDS
***************************************
.SUBCKT sky130_fd_pr__nfet_01v8__example_55959141808498
** N=22 EP=0 IP=0 FDC=0
*.SEEDPROM
.ENDS
***************************************
.SUBCKT sky130_fd_pr__pfet_01v8__example_55959141808580
** N=12 EP=0 IP=0 FDC=0
*.SEEDPROM
.ENDS
***************************************
.SUBCKT sky130_fd_io__gpiov2_amux_drvr_ls VGND VPWR_HV IN_B RST_H IN HLD_H_N OUT_H VPWR_LV OUT_H_N 10 11
** N=145 EP=11 IP=84 FDC=16
M0 10 IN_B VGND VGND nlowvt L=0.15 W=1 AD=0.14 AS=0.265 PD=1.28 PS=2.53 NRD=0 NRS=0 m=1 r=6.66667 sa=75000.2 sb=75001.5 a=0.15 p=2.3 mult=1 $X=980 $Y=790 $D=19
M1 VGND IN_B 10 VGND nlowvt L=0.15 W=1 AD=0.14 AS=0.14 PD=1.28 PS=1.28 NRD=0 NRS=0 m=1 r=6.66667 sa=75000.6 sb=75001 a=0.15 p=2.3 mult=1 $X=1410 $Y=790 $D=19
M2 11 IN VGND VGND nlowvt L=0.15 W=1 AD=0.14 AS=0.14 PD=1.28 PS=1.28 NRD=0 NRS=0 m=1 r=6.66667 sa=75001 sb=75000.6 a=0.15 p=2.3 mult=1 $X=1840 $Y=790 $D=19
M3 VGND IN 11 VGND nlowvt L=0.15 W=1 AD=0.265 AS=0.14 PD=2.53 PS=1.28 NRD=0 NRS=0 m=1 r=6.66667 sa=75001.5 sb=75000.2 a=0.15 p=2.3 mult=1 $X=2270 $Y=790 $D=19
M4 VGND RST_H OUT_H VGND nhv L=0.5 W=1.5 AD=0.21 AS=0.3975 PD=1.78 PS=3.53 NRD=0 NRS=0 m=1 r=3 sa=250000 sb=250002 a=0.75 p=4 mult=1 $X=910 $Y=2920 $D=49
M5 OUT_H RST_H VGND VGND nhv L=0.5 W=1.5 AD=0.21 AS=0.21 PD=1.78 PS=1.78 NRD=0 NRS=0 m=1 r=3 sa=250001 sb=250002 a=0.75 p=4 mult=1 $X=1690 $Y=2920 $D=49
M6 19 HLD_H_N OUT_H VGND nhv L=0.5 W=1.5 AD=0.21 AS=0.21 PD=1.78 PS=1.78 NRD=0 NRS=0 m=1 r=3 sa=250002 sb=250001 a=0.75 p=4 mult=1 $X=2470 $Y=2920 $D=49
M7 OUT_H HLD_H_N 19 VGND nhv L=0.5 W=1.5 AD=0.3975 AS=0.21 PD=3.53 PS=1.78 NRD=0 NRS=0 m=1 r=3 sa=250002 sb=250000 a=0.75 p=4 mult=1 $X=3250 $Y=2920 $D=49
M8 OUT_H_N HLD_H_N 18 VGND nhv L=0.5 W=1.5 AD=0.21 AS=0.3975 PD=1.78 PS=3.53 NRD=0 NRS=0 m=1 r=3 sa=250000 sb=250001 a=0.75 p=4 mult=1 $X=4650 $Y=2920 $D=49
M9 18 HLD_H_N OUT_H_N VGND nhv L=0.5 W=1.5 AD=0.3975 AS=0.21 PD=3.53 PS=1.78 NRD=0 NRS=0 m=1 r=3 sa=250001 sb=250000 a=0.75 p=4 mult=1 $X=5430 $Y=2920 $D=49
M10 19 VPWR_LV 10 VGND nhvnative L=0.9 W=1 AD=0.14 AS=0.265 PD=1.28 PS=2.53 NRD=0 NRS=0 m=1 r=1.11111 sa=450000 sb=450001 a=0.9 p=3.8 mult=1 $X=3690 $Y=790 $D=59
M11 10 VPWR_LV 19 VGND nhvnative L=0.9 W=1 AD=0.265 AS=0.14 PD=2.53 PS=1.28 NRD=0 NRS=0 m=1 r=1.11111 sa=450001 sb=450000 a=0.9 p=3.8 mult=1 $X=4870 $Y=790 $D=59
M12 11 VPWR_LV 18 VGND nhvnative L=0.9 W=1 AD=0.14 AS=0.265 PD=1.28 PS=2.53 NRD=0 NRS=0 m=1 r=1.11111 sa=450000 sb=450001 a=0.9 p=3.8 mult=1 $X=6640 $Y=790 $D=59
M13 18 VPWR_LV 11 VGND nhvnative L=0.9 W=1 AD=0.265 AS=0.14 PD=2.53 PS=1.28 NRD=0 NRS=0 m=1 r=1.11111 sa=450001 sb=450000 a=0.9 p=3.8 mult=1 $X=7820 $Y=790 $D=59
M14 VPWR_HV OUT_H OUT_H_N VPWR_HV phv L=0.6 W=0.7 AD=0.098 AS=0.1855 PD=0.98 PS=1.93 NRD=0 NRS=0 m=1 r=1.16667 sa=300000 sb=300001 a=0.42 p=2.6 mult=1 $X=7225 $Y=4120 $D=109
M15 OUT_H OUT_H_N VPWR_HV VPWR_HV phv L=0.6 W=0.7 AD=0.1855 AS=0.098 PD=1.93 PS=0.98 NRD=0 NRS=0 m=1 r=1.16667 sa=300001 sb=300000 a=0.42 p=2.6 mult=1 $X=8105 $Y=4120 $D=109
.ENDS
***************************************
.SUBCKT sky130_fd_pr__model__pfet_highvoltage__example_55959141808371
** N=15 EP=0 IP=0 FDC=0
*.SEEDPROM
.ENDS
***************************************
.SUBCKT sky130_fd_pr__model__nfet_highvoltage__example_55959141808369
** N=12 EP=0 IP=0 FDC=0
*.SEEDPROM
.ENDS
***************************************
.SUBCKT sky130_fd_io__hvsbt_inv_x1
** N=26 EP=0 IP=31 FDC=0
*.SEEDPROM
*.CALIBRE ISOLATED NETS: VGND VPWR OUT
.ENDS
***************************************
.SUBCKT sky130_fd_pr__model__pfet_highvoltage__example_55959141808421
** N=25 EP=0 IP=0 FDC=0
*.SEEDPROM
.ENDS
***************************************
.SUBCKT sky130_fd_io__hvsbt_inv_x2
** N=48 EP=0 IP=36 FDC=0
*.SEEDPROM
*.CALIBRE ISOLATED NETS: VGND VPWR IN OUT
.ENDS
***************************************
.SUBCKT sky130_fd_io__gpiov2_amx_inv4
** N=38 EP=0 IP=0 FDC=0
*.SEEDPROM
*.CALIBRE ISOLATED NETS: VSSA VDA A Y
.ENDS
***************************************
.SUBCKT sky130_fd_pr__nfet_01v8__example_55959141808570
** N=14 EP=0 IP=0 FDC=0
*.SEEDPROM
.ENDS
***************************************
.SUBCKT sky130_fd_pr__dfl1sd__example_55959141808106
** N=6 EP=0 IP=0 FDC=0
.ENDS
***************************************
.SUBCKT sky130_fd_io__amx_inv1
** N=28 EP=0 IP=12 FDC=0
*.SEEDPROM
.ENDS
***************************************
.SUBCKT sky130_fd_pr__dfl1sd__example_5595914180819
** N=10 EP=0 IP=0 FDC=0
.ENDS
***************************************
.SUBCKT sky130_fd_pr__dfl1sd2__example_5595914180884
** N=10 EP=0 IP=0 FDC=0
.ENDS
***************************************
.SUBCKT sky130_fd_pr__nfet_01v8__example_55959141808569
** N=29 EP=0 IP=24 FDC=0
*.SEEDPROM
.ENDS
***************************************
.SUBCKT sky130_fd_pr__hvdfm1sd__example_55959141808242
** N=7 EP=0 IP=0 FDC=0
*.SEEDPROM
.ENDS
***************************************
.SUBCKT sky130_fd_pr__nfet_01v8__example_55959141808579
** N=15 EP=0 IP=14 FDC=0
*.SEEDPROM
.ENDS
***************************************
.SUBCKT sky130_fd_pr__nfet_01v8__example_55959141808568 2 3 4
** N=25 EP=3 IP=20 FDC=1
*.SEEDPROM
M0 4 3 2 2 nhv L=0.5 W=3 AD=0.795 AS=0.795 PD=6.53 PS=6.53 NRD=0 NRS=0 m=1 r=6 sa=250000 sb=250000 a=1.5 p=7 mult=1 $X=0 $Y=0 $D=49
.ENDS
***************************************
.SUBCKT sky130_fd_pr__dfl1sd__example_55959141808504
** N=6 EP=0 IP=0 FDC=0
.ENDS
***************************************
.SUBCKT sky130_fd_pr__pfet_01v8__example_55959141808477
** N=10 EP=0 IP=0 FDC=0
*.SEEDPROM
.ENDS
***************************************
.SUBCKT sky130_fd_pr__pfet_01v8__example_55959141808567 2 3 4
** N=21 EP=3 IP=0 FDC=2
*.SEEDPROM
M0 4 3 2 2 phv L=0.5 W=1 AD=0.14 AS=0.265 PD=1.28 PS=2.53 NRD=0 NRS=0 m=1 r=2 sa=250000 sb=250001 a=0.5 p=3 mult=1 $X=0 $Y=0 $D=109
M1 2 3 4 2 phv L=0.5 W=1 AD=0.265 AS=0.14 PD=2.53 PS=1.28 NRD=0 NRS=0 m=1 r=2 sa=250001 sb=250000 a=0.5 p=3 mult=1 $X=780 $Y=0 $D=109
.ENDS
***************************************
.SUBCKT sky130_fd_io__gpiov2_amux_drvr VSSD VSSA VDDA VSWITCH VCCD VDDIO_Q 9 10 11 12 13 14 AMUX_EN_VDDA_H_N 16 AMUX_EN_VDDA_H 18 AMUX_EN_VDDIO_H_N 20 21 PD_CSD_VSWITCH_H
+ PU_CSD_VDDIOQ_H_N PGA_AMX_VDDA_H_N PGB_AMX_VDDA_H_N PD_CSD_VSWITCH_H_N NGA_PAD_VSWITCH_H NGA_PAD_VSWITCH_H_N AMUX_EN_VSWITCH_H NGA_AMX_VSWITCH_H NGB_AMX_VSWITCH_H NGB_PAD_VSWITCH_H NGB_PAD_VSWITCH_H_N D_B 35 36 NMIDA_ON_N NMIDA_VCCD NMIDA_VCCD_N AMUX_EN_VDDIO_H 41 42
+ 43 44 45 46 47 PGA_PAD_VDDIOQ_H_N PGB_PAD_VDDIOQ_H_N AMUXBUSA_ON_N AMUX_EN_VSWITCH_H_N AMUXBUSB_ON_N AMUXBUSA_ON AMUXBUSB_ON PU_ON_N PU_ON PD_ON_N PD_ON
** N=1012 EP=56 IP=529 FDC=200
*.SEEDPROM
M0 VSSA PD_CSD_VSWITCH_H PD_CSD_VSWITCH_H_N VSSA nhv L=0.5 W=0.75 AD=0.105 AS=0.19875 PD=1.03 PS=2.03 NRD=0 NRS=0 m=1 r=1.5 sa=250000 sb=250001 a=0.375 p=2.5 mult=1 $X=82615 $Y=-51105 $D=49
M1 NGA_PAD_VSWITCH_H_N NGA_PAD_VSWITCH_H VSSA VSSA nhv L=0.5 W=0.75 AD=0.19875 AS=0.105 PD=2.03 PS=1.03 NRD=0 NRS=0 m=1 r=1.5 sa=250001 sb=250000 a=0.375 p=2.5 mult=1 $X=83395 $Y=-51105 $D=49
M2 PD_CSD_VSWITCH_H 13 VSSA VSSA nhv L=0.5 W=1.5 AD=0.21 AS=0.3975 PD=1.78 PS=3.53 NRD=0 NRS=0 m=1 r=3 sa=250000 sb=250001 a=0.75 p=4 mult=1 $X=85960 $Y=-52310 $D=49
M3 VSSA VSSA PD_CSD_VSWITCH_H VSSA nhv L=0.5 W=1.5 AD=0.3975 AS=0.21 PD=3.53 PS=1.78 NRD=0 NRS=0 m=1 r=3 sa=250001 sb=250000 a=0.75 p=4 mult=1 $X=85960 $Y=-51530 $D=49
M4 69 14 9 VSSA nhv L=0.5 W=3 AD=0.42 AS=0.795 PD=3.28 PS=6.53 NRD=0 NRS=0 m=1 r=6 sa=250000 sb=250004 a=1.5 p=7 mult=1 $X=90580 $Y=-39960 $D=49
M5 9 14 69 VSSA nhv L=0.5 W=3 AD=0.42 AS=0.42 PD=3.28 PS=3.28 NRD=0 NRS=0 m=1 r=6 sa=250001 sb=250003 a=1.5 p=7 mult=1 $X=91360 $Y=-39960 $D=49
M6 VSSA 9 PGA_AMX_VDDA_H_N VSSA nhv L=0.5 W=1 AD=0.14 AS=0.265 PD=1.28 PS=2.53 NRD=0 NRS=0 m=1 r=2 sa=250000 sb=250001 a=0.5 p=3 mult=1 $X=92000 $Y=-35830 $D=49
M7 69 14 9 VSSA nhv L=0.5 W=3 AD=0.42 AS=0.42 PD=3.28 PS=3.28 NRD=0 NRS=0 m=1 r=6 sa=250002 sb=250002 a=1.5 p=7 mult=1 $X=92140 $Y=-39960 $D=49
M8 9 AMUX_EN_VDDA_H_N VSSA VSSA nhv L=0.5 W=1 AD=0.265 AS=0.14 PD=2.53 PS=1.28 NRD=0 NRS=0 m=1 r=2 sa=250001 sb=250000 a=0.5 p=3 mult=1 $X=92780 $Y=-35830 $D=49
M9 11 16 69 VSSA nhv L=0.5 W=3 AD=0.42 AS=0.42 PD=3.28 PS=3.28 NRD=0 NRS=0 m=1 r=6 sa=250002 sb=250002 a=1.5 p=7 mult=1 $X=92920 $Y=-39960 $D=49
M10 NGA_AMX_VSWITCH_H 41 VSSA VSSA nhv L=0.6 W=0.42 AD=0.0588 AS=0.1113 PD=0.7 PS=1.37 NRD=0 NRS=0 m=1 r=0.7 sa=300000 sb=300006 a=0.252 p=2.04 mult=1 $X=93165 $Y=-48540 $D=49
M11 69 16 11 VSSA nhv L=0.5 W=3 AD=0.42 AS=0.42 PD=3.28 PS=3.28 NRD=0 NRS=0 m=1 r=6 sa=250003 sb=250001 a=1.5 p=7 mult=1 $X=93700 $Y=-39960 $D=49
M12 VSSA AMUX_EN_VDDA_H_N NGA_AMX_VSWITCH_H VSSA nhv L=0.5 W=1 AD=0.14 AS=0.265 PD=1.28 PS=2.53 NRD=0 NRS=0 m=1 r=2 sa=250000 sb=250001 a=0.5 p=3 mult=1 $X=94070 $Y=-47545 $D=49
M13 VSSA 41 NGA_AMX_VSWITCH_H VSSA nhv L=0.6 W=0.42 AD=0.0588 AS=0.0588 PD=0.7 PS=0.7 NRD=0 NRS=0 m=1 r=0.7 sa=300001 sb=300005 a=0.252 p=2.04 mult=1 $X=94045 $Y=-48540 $D=49
M14 11 16 69 VSSA nhv L=0.5 W=3 AD=0.795 AS=0.42 PD=6.53 PS=3.28 NRD=0 NRS=0 m=1 r=6 sa=250004 sb=250000 a=1.5 p=7 mult=1 $X=94480 $Y=-39960 $D=49
M15 NGB_AMX_VSWITCH_H AMUX_EN_VDDA_H_N VSSA VSSA nhv L=0.5 W=1 AD=0.265 AS=0.14 PD=2.53 PS=1.28 NRD=0 NRS=0 m=1 r=2 sa=250001 sb=250000 a=0.5 p=3 mult=1 $X=94850 $Y=-47545 $D=49
M16 NGB_AMX_VSWITCH_H 43 VSSA VSSA nhv L=0.6 W=0.42 AD=0.0588 AS=0.0588 PD=0.7 PS=0.7 NRD=0 NRS=0 m=1 r=0.7 sa=300002 sb=300004 a=0.252 p=2.04 mult=1 $X=94925 $Y=-48540 $D=49
M17 VSSA 43 NGB_AMX_VSWITCH_H VSSA nhv L=0.6 W=0.42 AD=0.0588 AS=0.0588 PD=0.7 PS=0.7 NRD=0 NRS=0 m=1 r=0.7 sa=300003 sb=300003 a=0.252 p=2.04 mult=1 $X=95805 $Y=-48540 $D=49
M18 NGB_PAD_VSWITCH_H 43 VSSA VSSA nhv L=0.6 W=0.42 AD=0.0588 AS=0.0588 PD=0.7 PS=0.7 NRD=0 NRS=0 m=1 r=0.7 sa=300003 sb=300003 a=0.252 p=2.04 mult=1 $X=96685 $Y=-48540 $D=49
M19 VSSA AMUX_EN_VDDIO_H_N NGB_PAD_VSWITCH_H VSSA nhv L=0.5 W=1 AD=0.14 AS=0.265 PD=1.28 PS=2.53 NRD=0 NRS=0 m=1 r=2 sa=250000 sb=250001 a=0.5 p=3 mult=1 $X=97600 $Y=-47545 $D=49
M20 VSSA 43 NGB_PAD_VSWITCH_H VSSA nhv L=0.6 W=0.42 AD=0.0588 AS=0.0588 PD=0.7 PS=0.7 NRD=0 NRS=0 m=1 r=0.7 sa=300004 sb=300002 a=0.252 p=2.04 mult=1 $X=97565 $Y=-48540 $D=49
M21 NGA_PAD_VSWITCH_H AMUX_EN_VDDIO_H_N VSSA VSSA nhv L=0.5 W=1 AD=0.265 AS=0.14 PD=2.53 PS=1.28 NRD=0 NRS=0 m=1 r=2 sa=250001 sb=250000 a=0.5 p=3 mult=1 $X=98380 $Y=-47545 $D=49
M22 NGA_PAD_VSWITCH_H 41 VSSA VSSA nhv L=0.6 W=0.42 AD=0.0588 AS=0.0588 PD=0.7 PS=0.7 NRD=0 NRS=0 m=1 r=0.7 sa=300005 sb=300001 a=0.252 p=2.04 mult=1 $X=98445 $Y=-48540 $D=49
M23 70 18 12 VSSA nhv L=0.5 W=3 AD=0.42 AS=0.795 PD=3.28 PS=6.53 NRD=0 NRS=0 m=1 r=6 sa=250000 sb=250004 a=1.5 p=7 mult=1 $X=98890 $Y=-39960 $D=49
M24 VSSA 41 NGA_PAD_VSWITCH_H VSSA nhv L=0.6 W=0.42 AD=0.1113 AS=0.0588 PD=1.37 PS=0.7 NRD=0 NRS=0 m=1 r=0.7 sa=300006 sb=300000 a=0.252 p=2.04 mult=1 $X=99325 $Y=-48540 $D=49
M25 12 18 70 VSSA nhv L=0.5 W=3 AD=0.42 AS=0.42 PD=3.28 PS=3.28 NRD=0 NRS=0 m=1 r=6 sa=250001 sb=250003 a=1.5 p=7 mult=1 $X=99670 $Y=-39960 $D=49
M26 PD_CSD_VSWITCH_H AMUX_EN_VDDIO_H_N VSSA VSSA nhv L=0.5 W=1 AD=0.265 AS=0.265 PD=2.53 PS=2.53 NRD=0 NRS=0 m=1 r=2 sa=250000 sb=250000 a=0.5 p=3 mult=1 $X=99715 $Y=-47545 $D=49
M27 70 18 12 VSSA nhv L=0.5 W=3 AD=0.42 AS=0.42 PD=3.28 PS=3.28 NRD=0 NRS=0 m=1 r=6 sa=250002 sb=250002 a=1.5 p=7 mult=1 $X=100450 $Y=-39960 $D=49
M28 VSSA AMUX_EN_VDDA_H_N 10 VSSA nhv L=0.5 W=1 AD=0.14 AS=0.265 PD=1.28 PS=2.53 NRD=0 NRS=0 m=1 r=2 sa=250000 sb=250001 a=0.5 p=3 mult=1 $X=100590 $Y=-35830 $D=49
M29 10 20 70 VSSA nhv L=0.5 W=3 AD=0.42 AS=0.42 PD=3.28 PS=3.28 NRD=0 NRS=0 m=1 r=6 sa=250002 sb=250002 a=1.5 p=7 mult=1 $X=101230 $Y=-39960 $D=49
M30 PGB_AMX_VDDA_H_N 10 VSSA VSSA nhv L=0.5 W=1 AD=0.265 AS=0.14 PD=2.53 PS=1.28 NRD=0 NRS=0 m=1 r=2 sa=250001 sb=250000 a=0.5 p=3 mult=1 $X=101370 $Y=-35830 $D=49
M31 NGB_PAD_VSWITCH_H_N NGB_PAD_VSWITCH_H VSSA VSSA nhv L=0.5 W=0.75 AD=0.19875 AS=0.19875 PD=2.03 PS=2.03 NRD=0 NRS=0 m=1 r=1.5 sa=250000 sb=250000 a=0.375 p=2.5 mult=1 $X=101475 $Y=-48210 $D=49
M32 70 20 10 VSSA nhv L=0.5 W=3 AD=0.42 AS=0.42 PD=3.28 PS=3.28 NRD=0 NRS=0 m=1 r=6 sa=250003 sb=250001 a=1.5 p=7 mult=1 $X=102010 $Y=-39960 $D=49
M33 10 20 70 VSSA nhv L=0.5 W=3 AD=0.795 AS=0.42 PD=6.53 PS=3.28 NRD=0 NRS=0 m=1 r=6 sa=250004 sb=250000 a=1.5 p=7 mult=1 $X=102790 $Y=-39960 $D=49
M34 VSSD 35 D_B VSSD nhv L=0.6 W=0.7 AD=0.098 AS=0.1855 PD=0.98 PS=1.93 NRD=0 NRS=0 m=1 r=1.16667 sa=300000 sb=300004 a=0.42 p=2.6 mult=1 $X=112515 $Y=-56790 $D=49
M35 PGA_PAD_VDDIOQ_H_N 16 VSSD VSSD nhv L=0.6 W=0.42 AD=0.0588 AS=0.1113 PD=0.7 PS=1.37 NRD=0 NRS=0 m=1 r=0.7 sa=300000 sb=300009 a=0.252 p=2.04 mult=1 $X=113025 $Y=-63050 $D=49
M36 35 36 VSSD VSSD nhv L=0.6 W=0.7 AD=0.098 AS=0.098 PD=0.98 PS=0.98 NRD=0 NRS=0 m=1 r=1.16667 sa=300001 sb=300003 a=0.42 p=2.6 mult=1 $X=113395 $Y=-56790 $D=49
M37 VSSD 16 PGA_PAD_VDDIOQ_H_N VSSD nhv L=0.6 W=0.42 AD=0.0588 AS=0.0588 PD=0.7 PS=0.7 NRD=0 NRS=0 m=1 r=0.7 sa=300001 sb=300008 a=0.252 p=2.04 mult=1 $X=113905 $Y=-63050 $D=49
M38 VSSD 36 35 VSSD nhv L=0.6 W=0.7 AD=0.098 AS=0.098 PD=0.98 PS=0.98 NRD=0 NRS=0 m=1 r=1.16667 sa=300002 sb=300003 a=0.42 p=2.6 mult=1 $X=114275 $Y=-56790 $D=49
M39 PGB_PAD_VDDIOQ_H_N 18 VSSD VSSD nhv L=0.6 W=0.42 AD=0.0588 AS=0.0588 PD=0.7 PS=0.7 NRD=0 NRS=0 m=1 r=0.7 sa=300002 sb=300007 a=0.252 p=2.04 mult=1 $X=114785 $Y=-63050 $D=49
M40 NMIDA_VCCD NMIDA_ON_N VSSD VSSD nhv L=0.6 W=0.7 AD=0.098 AS=0.098 PD=0.98 PS=0.98 NRD=0 NRS=0 m=1 r=1.16667 sa=300003 sb=300002 a=0.42 p=2.6 mult=1 $X=115155 $Y=-56790 $D=49
M41 VSSD 18 PGB_PAD_VDDIOQ_H_N VSSD nhv L=0.6 W=0.42 AD=0.0588 AS=0.0588 PD=0.7 PS=0.7 NRD=0 NRS=0 m=1 r=0.7 sa=300003 sb=300006 a=0.252 p=2.04 mult=1 $X=115665 $Y=-63050 $D=49
M42 VSSD NMIDA_ON_N NMIDA_VCCD VSSD nhv L=0.6 W=0.7 AD=0.098 AS=0.098 PD=0.98 PS=0.98 NRD=0 NRS=0 m=1 r=1.16667 sa=300003 sb=300001 a=0.42 p=2.6 mult=1 $X=116035 $Y=-56790 $D=49
M43 PU_CSD_VDDIOQ_H_N 21 VSSD VSSD nhv L=0.6 W=0.42 AD=0.0588 AS=0.0588 PD=0.7 PS=0.7 NRD=0 NRS=0 m=1 r=0.7 sa=300003 sb=300005 a=0.252 p=2.04 mult=1 $X=116545 $Y=-63050 $D=49
M44 NMIDA_VCCD_N NMIDA_VCCD VSSD VSSD nhv L=0.6 W=0.7 AD=0.1855 AS=0.098 PD=1.93 PS=0.98 NRD=0 NRS=0 m=1 r=1.16667 sa=300004 sb=300000 a=0.42 p=2.6 mult=1 $X=116915 $Y=-56790 $D=49
M45 VSSD 21 PU_CSD_VDDIOQ_H_N VSSD nhv L=0.6 W=0.42 AD=0.0588 AS=0.0588 PD=0.7 PS=0.7 NRD=0 NRS=0 m=1 r=0.7 sa=300004 sb=300004 a=0.252 p=2.04 mult=1 $X=117425 $Y=-63050 $D=49
M46 PU_CSD_VDDIOQ_H_N 21 VSSD VSSD nhv L=0.6 W=0.42 AD=0.0588 AS=0.0588 PD=0.7 PS=0.7 NRD=0 NRS=0 m=1 r=0.7 sa=300005 sb=300003 a=0.252 p=2.04 mult=1 $X=118305 $Y=-63050 $D=49
M47 VSSD 21 PU_CSD_VDDIOQ_H_N VSSD nhv L=0.6 W=0.42 AD=0.0588 AS=0.0588 PD=0.7 PS=0.7 NRD=0 NRS=0 m=1 r=0.7 sa=300006 sb=300003 a=0.252 p=2.04 mult=1 $X=119185 $Y=-63050 $D=49
M48 PU_CSD_VDDIOQ_H_N 21 VSSD VSSD nhv L=0.6 W=0.42 AD=0.0588 AS=0.0588 PD=0.7 PS=0.7 NRD=0 NRS=0 m=1 r=0.7 sa=300007 sb=300002 a=0.252 p=2.04 mult=1 $X=120065 $Y=-63050 $D=49
M49 VSSD 21 PU_CSD_VDDIOQ_H_N VSSD nhv L=0.6 W=0.42 AD=0.0588 AS=0.0588 PD=0.7 PS=0.7 NRD=0 NRS=0 m=1 r=0.7 sa=300008 sb=300001 a=0.252 p=2.04 mult=1 $X=120945 $Y=-63050 $D=49
M50 PU_CSD_VDDIOQ_H_N 21 VSSD VSSD nhv L=0.6 W=0.42 AD=0.1113 AS=0.0588 PD=1.37 PS=0.7 NRD=0 NRS=0 m=1 r=0.7 sa=300009 sb=300000 a=0.252 p=2.04 mult=1 $X=121825 $Y=-63050 $D=49
M51 VSWITCH PD_CSD_VSWITCH_H PD_CSD_VSWITCH_H_N VSWITCH phv L=0.5 W=1.5 AD=0.21 AS=0.3975 PD=1.78 PS=3.53 NRD=0 NRS=0 m=1 r=3 sa=250000 sb=250001 a=0.75 p=4 mult=1 $X=82615 $Y=-53585 $D=109