* SPICE NETLIST
***************************************

.SUBCKT MN g s d b
.ENDS
***************************************
.SUBCKT MP g s d b
.ENDS
***************************************
.SUBCKT condiode pin0 pin1
.ENDS
***************************************
.SUBCKT condiodeHvPsub pin0 pin1
.ENDS
***************************************
.SUBCKT nvhv pin0 pin1 pin2 pin3
.ENDS
***************************************
.SUBCKT n20vhv1 pin0 pin1 pin2 pin3
.ENDS
***************************************
.SUBCKT n20nativevhv1 pin0 pin1 pin2 pin3
.ENDS
***************************************
.SUBCKT n20vhviso1 pin0 pin1 pin2 pin3 pin4
.ENDS
***************************************
.SUBCKT n20nativevhviso1 pin0 pin1 pin2 pin3 pin4
.ENDS
***************************************
.SUBCKT pvhv pin0 pin1 pin2 pin3
.ENDS
***************************************
.SUBCKT p20vhv1 pin0 pin1 pin2 pin3
.ENDS
***************************************
.SUBCKT xcnwvc pin0 pin1 pin2
.ENDS
***************************************
.SUBCKT xcnwvc2 pin0 pin1 pin2
.ENDS
***************************************
.SUBCKT xchvnwc pin0 pin1 pin2
.ENDS
***************************************
.SUBCKT Dpar d0 d1
.ENDS
***************************************
.SUBCKT xcmvpp pin0 pin1 pin2
.ENDS
***************************************
.SUBCKT xcmvpp_2 pin0 pin1 pin2
.ENDS
***************************************
.SUBCKT xcmvpp2_nhvnative10x4 pin0 pin1 pin2
.ENDS
***************************************
.SUBCKT xcmvpp2_phv5x4 pin0 pin1 pin2
.ENDS
***************************************
.SUBCKT xcmvpp_hd5_atlas_fingercap2_l5 pin0 pin1 pin2
.ENDS
***************************************
.SUBCKT xcmvpp_hd5_atlas_wafflecap2 pin0 pin1 pin2
.ENDS
***************************************
.SUBCKT xcmvpp_hd5_atlas_wafflecap1 pin0 pin1 pin2
.ENDS
***************************************
.SUBCKT xcmvpp_hd5_atlas_fingercap_l40 pin0 pin1 pin2
.ENDS
***************************************
.SUBCKT xcmvpp_hd5_atlas_fingercap_l20 pin0 pin1 pin2
.ENDS
***************************************
.SUBCKT xcmvpp_hd5_atlas_fingercap_l10 pin0 pin1 pin2
.ENDS
***************************************
.SUBCKT xcmvpp_hd5_atlas_fingercap_l5 pin0 pin1 pin2
.ENDS
***************************************
.SUBCKT xcmvpp_hd5_5x2_met5pullin pin0 pin1 pin2
.ENDS
***************************************
.SUBCKT xcmvpp_hd5_5x2 pin0 pin1 pin2
.ENDS
***************************************
.SUBCKT xcmvpp_hd5_5x1_met5pullin pin0 pin1 pin2
.ENDS
***************************************
.SUBCKT xcmvpp_hd5_5x1 pin0 pin1 pin2
.ENDS
***************************************
.SUBCKT xcmvpp_hd5_4x2 pin0 pin1 pin2
.ENDS
***************************************
.SUBCKT xcmvpp_hd5_4x1 pin0 pin1 pin2
.ENDS
***************************************
.SUBCKT xcmvpp_hd5_3x2 pin0 pin1 pin2
.ENDS
***************************************
.SUBCKT xcmvpp_hd5_3x1 pin0 pin1 pin2
.ENDS
***************************************
.SUBCKT xcmvpp_hd5_2x2 pin0 pin1 pin2
.ENDS
***************************************
.SUBCKT xcmvpp_hd5_2x1 pin0 pin1 pin2
.ENDS
***************************************
.SUBCKT xcmvpp_hd5_1x2 pin0 pin1 pin2
.ENDS
***************************************
.SUBCKT xcmvpp_hd5_1x1 pin0 pin1 pin2
.ENDS
***************************************
.SUBCKT xcmvppx4_2xnhvnative10x4 pin0 pin1 pin2 pin3
.ENDS
***************************************
.SUBCKT xcmvpp11p5x11p7_polym50p4shield pin0 pin1 pin2 pin3
.ENDS
***************************************
.SUBCKT xcmvpp4p4x4p6_m3_lim5shield pin0 pin1 pin2 pin3
.ENDS
***************************************
.SUBCKT xcmvpp11p5x11p7_m3_lim5shield pin0 pin1 pin2 pin3
.ENDS
***************************************
.SUBCKT xcmvpp8p6x7p9_m3_lim5shield pin0 pin1 pin2 pin3
.ENDS
***************************************
.SUBCKT xcmvpp11p5x11p7_lim5shield pin0 pin1 pin2 pin3
.ENDS
***************************************
.SUBCKT xcmvpp11p5x11p7_polym5shield pin0 pin1 pin2 pin3
.ENDS
***************************************
.SUBCKT xcmvpp11p5x11p7_m5shield pin0 pin1 pin2 pin3
.ENDS
***************************************
.SUBCKT xcmvpp6p8x6p1_lim4shield pin0 pin1 pin2 pin3
.ENDS
***************************************
.SUBCKT xcmvpp6p8x6p1_polym4shield pin0 pin1 pin2 pin3
.ENDS
***************************************
.SUBCKT xcmvpp11p5x11p7_polym4shield pin0 pin1 pin2 pin3
.ENDS
***************************************
.SUBCKT xcmvpp11p5x11p7_m4shield pin0 pin1 pin2 pin3
.ENDS
***************************************
.SUBCKT xcmvpp1p8x1p8 pin0 pin1 pin2
.ENDS
***************************************
.SUBCKT xcmvpp4p4x4p6_m3_lishield pin0 pin1 pin2
.ENDS
***************************************
.SUBCKT xcmvpp8p6x7p9_m3_lishield pin0 pin1 pin2
.ENDS
***************************************
.SUBCKT xcmvpp11p5x11p7_m3_lishield pin0 pin1 pin2
.ENDS
***************************************
.SUBCKT xcmvpp11p5x11p7_m3shield c0 c1 b term4
.ENDS
***************************************
.SUBCKT xcmvpp8p6x7p9_m3shield c0 c1 b term4
.ENDS
***************************************
.SUBCKT xcmvpp4p4x4p6_m3shield c0 c1 b term4
.ENDS
***************************************
.SUBCKT xcmvpp1p8x1p8_m3shield c0 c1 b term4
.ENDS
***************************************
.SUBCKT xcmvpp11p5x11p7_m1m4m5shield pin0 pin1 pin2 pin3
.ENDS
***************************************
.SUBCKT xcmvpp11p5x11p7_m1m4 pin0 pin1 pin2
.ENDS
***************************************
.SUBCKT xcmvpp11p5x11p7_m1m2 pin0 pin1 pin2
.ENDS
***************************************
.SUBCKT xcmvpp4p4x4p6_m1m2 pin0 pin1 pin2
.ENDS
***************************************
.SUBCKT xcmvpp5 pin0 pin1 pin2
.ENDS
***************************************
.SUBCKT xcmvpp4 pin0 pin1 pin2
.ENDS
***************************************
.SUBCKT xcmvpp3 pin0 pin1 pin2
.ENDS
***************************************
.SUBCKT balun pin0 pin1 pin2 pin3 pin4 pin5
.ENDS
***************************************
.SUBCKT ind4 pin0 pin1 pin2 pin3
.ENDS
***************************************
.SUBCKT xhrpoly_0p35 POS NEG SUB
.ENDS
***************************************
.SUBCKT xuhrpoly_0p35 POS NEG SUB
.ENDS
***************************************
.SUBCKT xhrpoly_0p69 POS NEG SUB
.ENDS
***************************************
.SUBCKT xuhrpoly_0p69 POS NEG SUB
.ENDS
***************************************
.SUBCKT xhrpoly_1p41 POS NEG SUB
.ENDS
***************************************
.SUBCKT xuhrpoly_1p41 POS NEG SUB
.ENDS
***************************************
.SUBCKT xhrpoly_2p85 POS NEG SUB
.ENDS
***************************************
.SUBCKT xuhrpoly_2p85 POS NEG SUB
.ENDS
***************************************
.SUBCKT xhrpoly_5p73 POS NEG SUB
.ENDS
***************************************
.SUBCKT xuhrpoly_5p73 POS NEG SUB
.ENDS
***************************************
.SUBCKT Probe probe conductor
.ENDS
***************************************
.SUBCKT sky130_fd_pr__hvdftpl1s__example_55959141808671
** N=117 EP=0 IP=0 FDC=0
.ENDS
***************************************
.SUBCKT sky130_fd_pr__hvdftpl1s2__example_55959141808672
** N=175 EP=0 IP=0 FDC=0
.ENDS
***************************************
.SUBCKT sky130_fd_pr__nfet_01v8__example_55959141808673
** N=26 EP=0 IP=12 FDC=0
*.SEEDPROM
.ENDS
***************************************
.SUBCKT sky130_fd_pr__dfl1__example_55959141808663
** N=118 EP=0 IP=0 FDC=0
.ENDS
***************************************
.SUBCKT ICV_2 2 3 4
** N=27 EP=3 IP=48 FDC=22
*.SEEDPROM
M0 4 3 2 2 nhv L=0.5 W=20 AD=15.1 AS=13.9 PD=21.51 PS=41.39 NRD=2.5308 NRS=2.2458 m=1 r=40 sa=250001 sb=250020 a=10 p=41 mult=1 $X=0 $Y=0 $D=49
M1 2 3 4 2 nhv L=0.5 W=20 AD=13.9 AS=15.1 PD=41.39 PS=21.51 NRD=2.2458 NRS=2.5308 m=1 r=40 sa=250003 sb=250020 a=10 p=41 mult=1 $X=2010 $Y=0 $D=49
M2 4 3 2 2 nhv L=0.5 W=20 AD=15.1 AS=13.9 PD=21.51 PS=41.39 NRD=2.5308 NRS=2.2458 m=1 r=40 sa=250006 sb=250020 a=10 p=41 mult=1 $X=4600 $Y=0 $D=49
M3 2 3 4 2 nhv L=0.5 W=20 AD=13.9 AS=15.1 PD=41.39 PS=21.51 NRD=2.2458 NRS=2.5308 m=1 r=40 sa=250008 sb=250020 a=10 p=41 mult=1 $X=6610 $Y=0 $D=49
M4 4 3 2 2 nhv L=0.5 W=20 AD=15.1 AS=13.9 PD=21.51 PS=41.39 NRD=2.5308 NRS=2.2458 m=1 r=40 sa=250010 sb=250020 a=10 p=41 mult=1 $X=9200 $Y=0 $D=49
M5 2 3 4 2 nhv L=0.5 W=20 AD=13.9 AS=15.1 PD=41.39 PS=21.51 NRD=2.2458 NRS=2.5308 m=1 r=40 sa=250012 sb=250020 a=10 p=41 mult=1 $X=11210 $Y=0 $D=49
M6 4 3 2 2 nhv L=0.5 W=20 AD=15.1 AS=13.9 PD=21.51 PS=41.39 NRD=2.5308 NRS=2.2458 m=1 r=40 sa=250015 sb=250020 a=10 p=41 mult=1 $X=13800 $Y=0 $D=49
M7 2 3 4 2 nhv L=0.5 W=20 AD=13.9 AS=15.1 PD=41.39 PS=21.51 NRD=2.2458 NRS=2.5308 m=1 r=40 sa=250017 sb=250020 a=10 p=41 mult=1 $X=15810 $Y=0 $D=49
M8 4 3 2 2 nhv L=0.5 W=20 AD=15.1 AS=13.9 PD=21.51 PS=41.39 NRD=2.5308 NRS=2.2458 m=1 r=40 sa=250020 sb=250020 a=10 p=41 mult=1 $X=18400 $Y=0 $D=49
M9 2 3 4 2 nhv L=0.5 W=20 AD=13.9 AS=15.1 PD=41.39 PS=21.51 NRD=2.2458 NRS=2.5308 m=1 r=40 sa=250020 sb=250020 a=10 p=41 mult=1 $X=20410 $Y=0 $D=49
M10 4 3 2 2 nhv L=0.5 W=20 AD=15.1 AS=13.9 PD=21.51 PS=41.39 NRD=2.5308 NRS=2.2458 m=1 r=40 sa=250020 sb=250020 a=10 p=41 mult=1 $X=23000 $Y=0 $D=49
M11 2 3 4 2 nhv L=0.5 W=20 AD=13.9 AS=15.1 PD=41.39 PS=21.51 NRD=2.2458 NRS=2.5308 m=1 r=40 sa=250020 sb=250020 a=10 p=41 mult=1 $X=25010 $Y=0 $D=49
M12 4 3 2 2 nhv L=0.5 W=20 AD=15.1 AS=13.9 PD=21.51 PS=41.39 NRD=2.5308 NRS=2.2458 m=1 r=40 sa=250020 sb=250020 a=10 p=41 mult=1 $X=27600 $Y=0 $D=49
M13 2 3 4 2 nhv L=0.5 W=20 AD=13.9 AS=15.1 PD=41.39 PS=21.51 NRD=2.2458 NRS=2.5308 m=1 r=40 sa=250020 sb=250020 a=10 p=41 mult=1 $X=29610 $Y=0 $D=49
M14 4 3 2 2 nhv L=0.5 W=20 AD=15.1 AS=13.9 PD=21.51 PS=41.39 NRD=2.5308 NRS=2.2458 m=1 r=40 sa=250020 sb=250017 a=10 p=41 mult=1 $X=32200 $Y=0 $D=49
M15 2 3 4 2 nhv L=0.5 W=20 AD=13.9 AS=15.1 PD=41.39 PS=21.51 NRD=2.2458 NRS=2.5308 m=1 r=40 sa=250020 sb=250015 a=10 p=41 mult=1 $X=34210 $Y=0 $D=49
M16 4 3 2 2 nhv L=0.5 W=20 AD=15.1 AS=13.9 PD=21.51 PS=41.39 NRD=2.5308 NRS=2.2458 m=1 r=40 sa=250020 sb=250012 a=10 p=41 mult=1 $X=36800 $Y=0 $D=49
M17 2 3 4 2 nhv L=0.5 W=20 AD=13.9 AS=15.1 PD=41.39 PS=21.51 NRD=2.2458 NRS=2.5308 m=1 r=40 sa=250020 sb=250010 a=10 p=41 mult=1 $X=38810 $Y=0 $D=49
M18 4 3 2 2 nhv L=0.5 W=20 AD=15.1 AS=13.9 PD=21.51 PS=41.39 NRD=2.5308 NRS=2.2458 m=1 r=40 sa=250020 sb=250008 a=10 p=41 mult=1 $X=41400 $Y=0 $D=49
M19 2 3 4 2 nhv L=0.5 W=20 AD=13.9 AS=15.1 PD=41.39 PS=21.51 NRD=2.2458 NRS=2.5308 m=1 r=40 sa=250020 sb=250006 a=10 p=41 mult=1 $X=43410 $Y=0 $D=49
M20 4 3 2 2 nhv L=0.5 W=20 AD=15.1 AS=13.9 PD=21.51 PS=41.39 NRD=2.5308 NRS=2.2458 m=1 r=40 sa=250020 sb=250003 a=10 p=41 mult=1 $X=46000 $Y=0 $D=49
M21 2 3 4 2 nhv L=0.5 W=20 AD=13.9 AS=15.1 PD=41.39 PS=21.51 NRD=2.2458 NRS=2.5308 m=1 r=40 sa=250020 sb=250001 a=10 p=41 mult=1 $X=48010 $Y=0 $D=49
.ENDS
***************************************
.SUBCKT ICV_3 2 3 4
** N=26 EP=3 IP=48 FDC=22
*.SEEDPROM
M0 4 3 2 2 nhv L=0.5 W=20 AD=15.1 AS=13.9 PD=21.51 PS=41.39 NRD=2.5308 NRS=2.2458 m=1 r=40 sa=250001 sb=250020 a=10 p=41 mult=1 $X=0 $Y=0 $D=49
M1 2 3 4 2 nhv L=0.5 W=20 AD=13.9 AS=15.1 PD=41.39 PS=21.51 NRD=2.2458 NRS=2.5308 m=1 r=40 sa=250003 sb=250020 a=10 p=41 mult=1 $X=2010 $Y=0 $D=49
M2 4 3 2 2 nhv L=0.5 W=20 AD=15.1 AS=13.9 PD=21.51 PS=41.39 NRD=2.5308 NRS=2.2458 m=1 r=40 sa=250006 sb=250020 a=10 p=41 mult=1 $X=4600 $Y=0 $D=49
M3 2 3 4 2 nhv L=0.5 W=20 AD=13.9 AS=15.1 PD=41.39 PS=21.51 NRD=2.2458 NRS=2.5308 m=1 r=40 sa=250008 sb=250020 a=10 p=41 mult=1 $X=6610 $Y=0 $D=49
M4 4 3 2 2 nhv L=0.5 W=20 AD=15.1 AS=13.9 PD=21.51 PS=41.39 NRD=2.5308 NRS=2.2458 m=1 r=40 sa=250010 sb=250020 a=10 p=41 mult=1 $X=9200 $Y=0 $D=49
M5 2 3 4 2 nhv L=0.5 W=20 AD=13.9 AS=15.1 PD=41.39 PS=21.51 NRD=2.2458 NRS=2.5308 m=1 r=40 sa=250012 sb=250020 a=10 p=41 mult=1 $X=11210 $Y=0 $D=49
M6 4 3 2 2 nhv L=0.5 W=20 AD=15.1 AS=13.9 PD=21.51 PS=41.39 NRD=2.5308 NRS=2.2458 m=1 r=40 sa=250015 sb=250020 a=10 p=41 mult=1 $X=13800 $Y=0 $D=49
M7 2 3 4 2 nhv L=0.5 W=20 AD=13.9 AS=15.1 PD=41.39 PS=21.51 NRD=2.2458 NRS=2.5308 m=1 r=40 sa=250017 sb=250020 a=10 p=41 mult=1 $X=15810 $Y=0 $D=49
M8 4 3 2 2 nhv L=0.5 W=20 AD=15.1 AS=13.9 PD=21.51 PS=41.39 NRD=2.5308 NRS=2.2458 m=1 r=40 sa=250020 sb=250020 a=10 p=41 mult=1 $X=18400 $Y=0 $D=49
M9 2 3 4 2 nhv L=0.5 W=20 AD=13.9 AS=15.1 PD=41.39 PS=21.51 NRD=2.2458 NRS=2.5308 m=1 r=40 sa=250020 sb=250020 a=10 p=41 mult=1 $X=20410 $Y=0 $D=49
M10 4 3 2 2 nhv L=0.5 W=20 AD=15.1 AS=13.9 PD=21.51 PS=41.39 NRD=2.5308 NRS=2.2458 m=1 r=40 sa=250020 sb=250020 a=10 p=41 mult=1 $X=23000 $Y=0 $D=49
M11 2 3 4 2 nhv L=0.5 W=20 AD=13.9 AS=15.1 PD=41.39 PS=21.51 NRD=2.2458 NRS=2.5308 m=1 r=40 sa=250020 sb=250020 a=10 p=41 mult=1 $X=25010 $Y=0 $D=49
M12 4 3 2 2 nhv L=0.5 W=20 AD=15.1 AS=13.9 PD=21.51 PS=41.39 NRD=2.5308 NRS=2.2458 m=1 r=40 sa=250020 sb=250020 a=10 p=41 mult=1 $X=27600 $Y=0 $D=49
M13 2 3 4 2 nhv L=0.5 W=20 AD=13.9 AS=15.1 PD=41.39 PS=21.51 NRD=2.2458 NRS=2.5308 m=1 r=40 sa=250020 sb=250020 a=10 p=41 mult=1 $X=29610 $Y=0 $D=49
M14 4 3 2 2 nhv L=0.5 W=20 AD=15.1 AS=13.9 PD=21.51 PS=41.39 NRD=2.5308 NRS=2.2458 m=1 r=40 sa=250020 sb=250017 a=10 p=41 mult=1 $X=32200 $Y=0 $D=49
M15 2 3 4 2 nhv L=0.5 W=20 AD=13.9 AS=15.1 PD=41.39 PS=21.51 NRD=2.2458 NRS=2.5308 m=1 r=40 sa=250020 sb=250015 a=10 p=41 mult=1 $X=34210 $Y=0 $D=49
M16 4 3 2 2 nhv L=0.5 W=20 AD=15.1 AS=13.9 PD=21.51 PS=41.39 NRD=2.5308 NRS=2.2458 m=1 r=40 sa=250020 sb=250012 a=10 p=41 mult=1 $X=36800 $Y=0 $D=49
M17 2 3 4 2 nhv L=0.5 W=20 AD=13.9 AS=15.1 PD=41.39 PS=21.51 NRD=2.2458 NRS=2.5308 m=1 r=40 sa=250020 sb=250010 a=10 p=41 mult=1 $X=38810 $Y=0 $D=49
M18 4 3 2 2 nhv L=0.5 W=20 AD=15.1 AS=13.9 PD=21.51 PS=41.39 NRD=2.5308 NRS=2.2458 m=1 r=40 sa=250020 sb=250008 a=10 p=41 mult=1 $X=41400 $Y=0 $D=49
M19 2 3 4 2 nhv L=0.5 W=20 AD=13.9 AS=15.1 PD=41.39 PS=21.51 NRD=2.2458 NRS=2.5308 m=1 r=40 sa=250020 sb=250006 a=10 p=41 mult=1 $X=43410 $Y=0 $D=49
M20 4 3 2 2 nhv L=0.5 W=20 AD=15.1 AS=13.9 PD=21.51 PS=41.39 NRD=2.5308 NRS=2.2458 m=1 r=40 sa=250020 sb=250003 a=10 p=41 mult=1 $X=46000 $Y=0 $D=49
M21 2 3 4 2 nhv L=0.5 W=20 AD=13.9 AS=15.1 PD=41.39 PS=21.51 NRD=2.2458 NRS=2.5308 m=1 r=40 sa=250020 sb=250001 a=10 p=41 mult=1 $X=48010 $Y=0 $D=49
.ENDS
***************************************
.SUBCKT sky130_fd_pr__nfet_01v8__example_55959141808670
** N=21 EP=0 IP=10 FDC=0
*.SEEDPROM
.ENDS
***************************************
.SUBCKT ICV_4 2 3 4
** N=22 EP=3 IP=39 FDC=18
*.SEEDPROM
M0 4 3 2 2 nhv L=0.5 W=20 AD=15.1 AS=13.9 PD=21.51 PS=41.39 NRD=2.5308 NRS=2.2458 m=1 r=40 sa=250001 sb=250020 a=10 p=41 mult=1 $X=0 $Y=0 $D=49
M1 2 3 4 2 nhv L=0.5 W=20 AD=13.9 AS=15.1 PD=41.39 PS=21.51 NRD=2.2458 NRS=2.5308 m=1 r=40 sa=250003 sb=250020 a=10 p=41 mult=1 $X=2010 $Y=0 $D=49
M2 4 3 2 2 nhv L=0.5 W=20 AD=15.1 AS=13.9 PD=21.51 PS=41.39 NRD=2.5308 NRS=2.2458 m=1 r=40 sa=250006 sb=250020 a=10 p=41 mult=1 $X=4600 $Y=0 $D=49
M3 2 3 4 2 nhv L=0.5 W=20 AD=13.9 AS=15.1 PD=41.39 PS=21.51 NRD=2.2458 NRS=2.5308 m=1 r=40 sa=250008 sb=250020 a=10 p=41 mult=1 $X=6610 $Y=0 $D=49
M4 4 3 2 2 nhv L=0.5 W=20 AD=15.1 AS=13.9 PD=21.51 PS=41.39 NRD=2.5308 NRS=2.2458 m=1 r=40 sa=250010 sb=250020 a=10 p=41 mult=1 $X=9200 $Y=0 $D=49
M5 2 3 4 2 nhv L=0.5 W=20 AD=13.9 AS=15.1 PD=41.39 PS=21.51 NRD=2.2458 NRS=2.5308 m=1 r=40 sa=250012 sb=250020 a=10 p=41 mult=1 $X=11210 $Y=0 $D=49
M6 4 3 2 2 nhv L=0.5 W=20 AD=15.1 AS=13.9 PD=21.51 PS=41.39 NRD=2.5308 NRS=2.2458 m=1 r=40 sa=250015 sb=250020 a=10 p=41 mult=1 $X=13800 $Y=0 $D=49
M7 2 3 4 2 nhv L=0.5 W=20 AD=13.9 AS=15.1 PD=41.39 PS=21.51 NRD=2.2458 NRS=2.5308 m=1 r=40 sa=250017 sb=250020 a=10 p=41 mult=1 $X=15810 $Y=0 $D=49
M8 4 3 2 2 nhv L=0.5 W=20 AD=15.1 AS=13.9 PD=21.51 PS=41.39 NRD=2.5308 NRS=2.2458 m=1 r=40 sa=250020 sb=250020 a=10 p=41 mult=1 $X=18400 $Y=0 $D=49
M9 2 3 4 2 nhv L=0.5 W=20 AD=13.9 AS=15.1 PD=41.39 PS=21.51 NRD=2.2458 NRS=2.5308 m=1 r=40 sa=250020 sb=250020 a=10 p=41 mult=1 $X=20410 $Y=0 $D=49
M10 4 3 2 2 nhv L=0.5 W=20 AD=15.1 AS=13.9 PD=21.51 PS=41.39 NRD=2.5308 NRS=2.2458 m=1 r=40 sa=250020 sb=250017 a=10 p=41 mult=1 $X=23000 $Y=0 $D=49
M11 2 3 4 2 nhv L=0.5 W=20 AD=13.9 AS=15.1 PD=41.39 PS=21.51 NRD=2.2458 NRS=2.5308 m=1 r=40 sa=250020 sb=250015 a=10 p=41 mult=1 $X=25010 $Y=0 $D=49
M12 4 3 2 2 nhv L=0.5 W=20 AD=15.1 AS=13.9 PD=21.51 PS=41.39 NRD=2.5308 NRS=2.2458 m=1 r=40 sa=250020 sb=250012 a=10 p=41 mult=1 $X=27600 $Y=0 $D=49
M13 2 3 4 2 nhv L=0.5 W=20 AD=13.9 AS=15.1 PD=41.39 PS=21.51 NRD=2.2458 NRS=2.5308 m=1 r=40 sa=250020 sb=250010 a=10 p=41 mult=1 $X=29610 $Y=0 $D=49
M14 4 3 2 2 nhv L=0.5 W=20 AD=15.1 AS=13.9 PD=21.51 PS=41.39 NRD=2.5308 NRS=2.2458 m=1 r=40 sa=250020 sb=250008 a=10 p=41 mult=1 $X=32200 $Y=0 $D=49
M15 2 3 4 2 nhv L=0.5 W=20 AD=13.9 AS=15.1 PD=41.39 PS=21.51 NRD=2.2458 NRS=2.5308 m=1 r=40 sa=250020 sb=250006 a=10 p=41 mult=1 $X=34210 $Y=0 $D=49
M16 4 3 2 2 nhv L=0.5 W=20 AD=15.1 AS=13.9 PD=21.51 PS=41.39 NRD=2.5308 NRS=2.2458 m=1 r=40 sa=250020 sb=250003 a=10 p=41 mult=1 $X=36800 $Y=0 $D=49
M17 2 3 4 2 nhv L=0.5 W=20 AD=13.9 AS=15.1 PD=41.39 PS=21.51 NRD=2.2458 NRS=2.5308 m=1 r=40 sa=250020 sb=250001 a=10 p=41 mult=1 $X=38810 $Y=0 $D=49
.ENDS
***************************************
.SUBCKT ICV_5 2 3 4
** N=23 EP=3 IP=39 FDC=18
*.SEEDPROM
M0 4 3 2 2 nhv L=0.5 W=20 AD=15.1 AS=13.9 PD=21.51 PS=41.39 NRD=2.5308 NRS=2.2458 m=1 r=40 sa=250001 sb=250020 a=10 p=41 mult=1 $X=0 $Y=0 $D=49
M1 2 3 4 2 nhv L=0.5 W=20 AD=13.9 AS=15.1 PD=41.39 PS=21.51 NRD=2.2458 NRS=2.5308 m=1 r=40 sa=250003 sb=250020 a=10 p=41 mult=1 $X=2010 $Y=0 $D=49
M2 4 3 2 2 nhv L=0.5 W=20 AD=15.1 AS=13.9 PD=21.51 PS=41.39 NRD=2.5308 NRS=2.2458 m=1 r=40 sa=250006 sb=250020 a=10 p=41 mult=1 $X=4600 $Y=0 $D=49
M3 2 3 4 2 nhv L=0.5 W=20 AD=13.9 AS=15.1 PD=41.39 PS=21.51 NRD=2.2458 NRS=2.5308 m=1 r=40 sa=250008 sb=250020 a=10 p=41 mult=1 $X=6610 $Y=0 $D=49
M4 4 3 2 2 nhv L=0.5 W=20 AD=15.1 AS=13.9 PD=21.51 PS=41.39 NRD=2.5308 NRS=2.2458 m=1 r=40 sa=250010 sb=250020 a=10 p=41 mult=1 $X=9200 $Y=0 $D=49
M5 2 3 4 2 nhv L=0.5 W=20 AD=13.9 AS=15.1 PD=41.39 PS=21.51 NRD=2.2458 NRS=2.5308 m=1 r=40 sa=250012 sb=250020 a=10 p=41 mult=1 $X=11210 $Y=0 $D=49
M6 4 3 2 2 nhv L=0.5 W=20 AD=15.1 AS=13.9 PD=21.51 PS=41.39 NRD=2.5308 NRS=2.2458 m=1 r=40 sa=250015 sb=250020 a=10 p=41 mult=1 $X=13800 $Y=0 $D=49
M7 2 3 4 2 nhv L=0.5 W=20 AD=13.9 AS=15.1 PD=41.39 PS=21.51 NRD=2.2458 NRS=2.5308 m=1 r=40 sa=250017 sb=250020 a=10 p=41 mult=1 $X=15810 $Y=0 $D=49
M8 4 3 2 2 nhv L=0.5 W=20 AD=15.1 AS=13.9 PD=21.51 PS=41.39 NRD=2.5308 NRS=2.2458 m=1 r=40 sa=250020 sb=250020 a=10 p=41 mult=1 $X=18400 $Y=0 $D=49
M9 2 3 4 2 nhv L=0.5 W=20 AD=13.9 AS=15.1 PD=41.39 PS=21.51 NRD=2.2458 NRS=2.5308 m=1 r=40 sa=250020 sb=250020 a=10 p=41 mult=1 $X=20410 $Y=0 $D=49
M10 4 3 2 2 nhv L=0.5 W=20 AD=15.1 AS=13.9 PD=21.51 PS=41.39 NRD=2.5308 NRS=2.2458 m=1 r=40 sa=250020 sb=250017 a=10 p=41 mult=1 $X=23000 $Y=0 $D=49
M11 2 3 4 2 nhv L=0.5 W=20 AD=13.9 AS=15.1 PD=41.39 PS=21.51 NRD=2.2458 NRS=2.5308 m=1 r=40 sa=250020 sb=250015 a=10 p=41 mult=1 $X=25010 $Y=0 $D=49
M12 4 3 2 2 nhv L=0.5 W=20 AD=15.1 AS=13.9 PD=21.51 PS=41.39 NRD=2.5308 NRS=2.2458 m=1 r=40 sa=250020 sb=250012 a=10 p=41 mult=1 $X=27600 $Y=0 $D=49
M13 2 3 4 2 nhv L=0.5 W=20 AD=13.9 AS=15.1 PD=41.39 PS=21.51 NRD=2.2458 NRS=2.5308 m=1 r=40 sa=250020 sb=250010 a=10 p=41 mult=1 $X=29610 $Y=0 $D=49
M14 4 3 2 2 nhv L=0.5 W=20 AD=15.1 AS=13.9 PD=21.51 PS=41.39 NRD=2.5308 NRS=2.2458 m=1 r=40 sa=250020 sb=250008 a=10 p=41 mult=1 $X=32200 $Y=0 $D=49
M15 2 3 4 2 nhv L=0.5 W=20 AD=13.9 AS=15.1 PD=41.39 PS=21.51 NRD=2.2458 NRS=2.5308 m=1 r=40 sa=250020 sb=250006 a=10 p=41 mult=1 $X=34210 $Y=0 $D=49
M16 4 3 2 2 nhv L=0.5 W=20 AD=15.1 AS=13.9 PD=21.51 PS=41.39 NRD=2.5308 NRS=2.2458 m=1 r=40 sa=250020 sb=250003 a=10 p=41 mult=1 $X=36800 $Y=0 $D=49
M17 2 3 4 2 nhv L=0.5 W=20 AD=13.9 AS=15.1 PD=41.39 PS=21.51 NRD=2.2458 NRS=2.5308 m=1 r=40 sa=250020 sb=250001 a=10 p=41 mult=1 $X=38810 $Y=0 $D=49
.ENDS
***************************************
.SUBCKT ICV_6 2 3 4
** N=22 EP=3 IP=39 FDC=18
*.SEEDPROM
M0 4 3 2 2 nhv L=0.5 W=20 AD=15.1 AS=13.9 PD=21.51 PS=41.39 NRD=2.5308 NRS=2.2458 m=1 r=40 sa=250001 sb=250020 a=10 p=41 mult=1 $X=0 $Y=0 $D=49
M1 2 3 4 2 nhv L=0.5 W=20 AD=13.9 AS=15.1 PD=41.39 PS=21.51 NRD=2.2458 NRS=2.5308 m=1 r=40 sa=250003 sb=250020 a=10 p=41 mult=1 $X=2010 $Y=0 $D=49
M2 4 3 2 2 nhv L=0.5 W=20 AD=15.1 AS=13.9 PD=21.51 PS=41.39 NRD=2.5308 NRS=2.2458 m=1 r=40 sa=250006 sb=250020 a=10 p=41 mult=1 $X=4600 $Y=0 $D=49
M3 2 3 4 2 nhv L=0.5 W=20 AD=13.9 AS=15.1 PD=41.39 PS=21.51 NRD=2.2458 NRS=2.5308 m=1 r=40 sa=250008 sb=250020 a=10 p=41 mult=1 $X=6610 $Y=0 $D=49
M4 4 3 2 2 nhv L=0.5 W=20 AD=15.1 AS=13.9 PD=21.51 PS=41.39 NRD=2.5308 NRS=2.2458 m=1 r=40 sa=250010 sb=250020 a=10 p=41 mult=1 $X=9200 $Y=0 $D=49
M5 2 3 4 2 nhv L=0.5 W=20 AD=13.9 AS=15.1 PD=41.39 PS=21.51 NRD=2.2458 NRS=2.5308 m=1 r=40 sa=250012 sb=250020 a=10 p=41 mult=1 $X=11210 $Y=0 $D=49
M6 4 3 2 2 nhv L=0.5 W=20 AD=15.1 AS=13.9 PD=21.51 PS=41.39 NRD=2.5308 NRS=2.2458 m=1 r=40 sa=250015 sb=250020 a=10 p=41 mult=1 $X=13800 $Y=0 $D=49
M7 2 3 4 2 nhv L=0.5 W=20 AD=13.9 AS=15.1 PD=41.39 PS=21.51 NRD=2.2458 NRS=2.5308 m=1 r=40 sa=250017 sb=250020 a=10 p=41 mult=1 $X=15810 $Y=0 $D=49
M8 4 3 2 2 nhv L=0.5 W=20 AD=15.1 AS=13.9 PD=21.51 PS=41.39 NRD=2.5308 NRS=2.2458 m=1 r=40 sa=250020 sb=250020 a=10 p=41 mult=1 $X=18400 $Y=0 $D=49
M9 2 3 4 2 nhv L=0.5 W=20 AD=13.9 AS=15.1 PD=41.39 PS=21.51 NRD=2.2458 NRS=2.5308 m=1 r=40 sa=250020 sb=250020 a=10 p=41 mult=1 $X=20410 $Y=0 $D=49
M10 4 3 2 2 nhv L=0.5 W=20 AD=15.1 AS=13.9 PD=21.51 PS=41.39 NRD=2.5308 NRS=2.2458 m=1 r=40 sa=250020 sb=250017 a=10 p=41 mult=1 $X=23000 $Y=0 $D=49
M11 2 3 4 2 nhv L=0.5 W=20 AD=13.9 AS=15.1 PD=41.39 PS=21.51 NRD=2.2458 NRS=2.5308 m=1 r=40 sa=250020 sb=250015 a=10 p=41 mult=1 $X=25010 $Y=0 $D=49
M12 4 3 2 2 nhv L=0.5 W=20 AD=15.1 AS=13.9 PD=21.51 PS=41.39 NRD=2.5308 NRS=2.2458 m=1 r=40 sa=250020 sb=250012 a=10 p=41 mult=1 $X=27600 $Y=0 $D=49
M13 2 3 4 2 nhv L=0.5 W=20 AD=13.9 AS=15.1 PD=41.39 PS=21.51 NRD=2.2458 NRS=2.5308 m=1 r=40 sa=250020 sb=250010 a=10 p=41 mult=1 $X=29610 $Y=0 $D=49
M14 4 3 2 2 nhv L=0.5 W=20 AD=15.1 AS=13.9 PD=21.51 PS=41.39 NRD=2.5308 NRS=2.2458 m=1 r=40 sa=250020 sb=250008 a=10 p=41 mult=1 $X=32200 $Y=0 $D=49
M15 2 3 4 2 nhv L=0.5 W=20 AD=13.9 AS=15.1 PD=41.39 PS=21.51 NRD=2.2458 NRS=2.5308 m=1 r=40 sa=250020 sb=250006 a=10 p=41 mult=1 $X=34210 $Y=0 $D=49
M16 4 3 2 2 nhv L=0.5 W=20 AD=15.1 AS=13.9 PD=21.51 PS=41.39 NRD=2.5308 NRS=2.2458 m=1 r=40 sa=250020 sb=250003 a=10 p=41 mult=1 $X=36800 $Y=0 $D=49
M17 2 3 4 2 nhv L=0.5 W=20 AD=13.9 AS=15.1 PD=41.39 PS=21.51 NRD=2.2458 NRS=2.5308 m=1 r=40 sa=250020 sb=250001 a=10 p=41 mult=1 $X=38810 $Y=0 $D=49
.ENDS
***************************************
.SUBCKT ICV_7 2 3 4
** N=30 EP=3 IP=48 FDC=22
*.SEEDPROM
M0 4 3 2 2 nhv L=0.5 W=20 AD=15.1 AS=13.9 PD=21.51 PS=41.39 NRD=2.5308 NRS=2.2458 m=1 r=40 sa=250001 sb=250020 a=10 p=41 mult=1 $X=0 $Y=0 $D=49
M1 2 3 4 2 nhv L=0.5 W=20 AD=13.9 AS=15.1 PD=41.39 PS=21.51 NRD=2.2458 NRS=2.5308 m=1 r=40 sa=250003 sb=250020 a=10 p=41 mult=1 $X=2010 $Y=0 $D=49
M2 4 3 2 2 nhv L=0.5 W=20 AD=15.1 AS=13.9 PD=21.51 PS=41.39 NRD=2.5308 NRS=2.2458 m=1 r=40 sa=250006 sb=250020 a=10 p=41 mult=1 $X=4600 $Y=0 $D=49
M3 2 3 4 2 nhv L=0.5 W=20 AD=13.9 AS=15.1 PD=41.39 PS=21.51 NRD=2.2458 NRS=2.5308 m=1 r=40 sa=250008 sb=250020 a=10 p=41 mult=1 $X=6610 $Y=0 $D=49
M4 4 3 2 2 nhv L=0.5 W=20 AD=15.1 AS=13.9 PD=21.51 PS=41.39 NRD=2.5308 NRS=2.2458 m=1 r=40 sa=250010 sb=250020 a=10 p=41 mult=1 $X=9200 $Y=0 $D=49
M5 2 3 4 2 nhv L=0.5 W=20 AD=13.9 AS=15.1 PD=41.39 PS=21.51 NRD=2.2458 NRS=2.5308 m=1 r=40 sa=250012 sb=250020 a=10 p=41 mult=1 $X=11210 $Y=0 $D=49
M6 4 3 2 2 nhv L=0.5 W=20 AD=15.1 AS=13.9 PD=21.51 PS=41.39 NRD=2.5308 NRS=2.2458 m=1 r=40 sa=250015 sb=250020 a=10 p=41 mult=1 $X=13800 $Y=0 $D=49
M7 2 3 4 2 nhv L=0.5 W=20 AD=13.9 AS=15.1 PD=41.39 PS=21.51 NRD=2.2458 NRS=2.5308 m=1 r=40 sa=250017 sb=250020 a=10 p=41 mult=1 $X=15810 $Y=0 $D=49
M8 4 3 2 2 nhv L=0.5 W=20 AD=15.1 AS=13.9 PD=21.51 PS=41.39 NRD=2.5308 NRS=2.2458 m=1 r=40 sa=250020 sb=250020 a=10 p=41 mult=1 $X=18400 $Y=0 $D=49
M9 2 3 4 2 nhv L=0.5 W=20 AD=13.9 AS=15.1 PD=41.39 PS=21.51 NRD=2.2458 NRS=2.5308 m=1 r=40 sa=250020 sb=250020 a=10 p=41 mult=1 $X=20410 $Y=0 $D=49
M10 4 3 2 2 nhv L=0.5 W=20 AD=15.1 AS=13.9 PD=21.51 PS=41.39 NRD=2.5308 NRS=2.2458 m=1 r=40 sa=250020 sb=250020 a=10 p=41 mult=1 $X=23000 $Y=0 $D=49
M11 2 3 4 2 nhv L=0.5 W=20 AD=13.9 AS=15.1 PD=41.39 PS=21.51 NRD=2.2458 NRS=2.5308 m=1 r=40 sa=250020 sb=250020 a=10 p=41 mult=1 $X=25010 $Y=0 $D=49
M12 4 3 2 2 nhv L=0.5 W=20 AD=15.1 AS=13.9 PD=21.51 PS=41.39 NRD=2.5308 NRS=2.2458 m=1 r=40 sa=250020 sb=250020 a=10 p=41 mult=1 $X=27600 $Y=0 $D=49
M13 2 3 4 2 nhv L=0.5 W=20 AD=13.9 AS=15.1 PD=41.39 PS=21.51 NRD=2.2458 NRS=2.5308 m=1 r=40 sa=250020 sb=250020 a=10 p=41 mult=1 $X=29610 $Y=0 $D=49
M14 4 3 2 2 nhv L=0.5 W=20 AD=15.1 AS=13.9 PD=21.51 PS=41.39 NRD=2.5308 NRS=2.2458 m=1 r=40 sa=250020 sb=250017 a=10 p=41 mult=1 $X=32200 $Y=0 $D=49
M15 2 3 4 2 nhv L=0.5 W=20 AD=13.9 AS=15.1 PD=41.39 PS=21.51 NRD=2.2458 NRS=2.5308 m=1 r=40 sa=250020 sb=250015 a=10 p=41 mult=1 $X=34210 $Y=0 $D=49
M16 4 3 2 2 nhv L=0.5 W=20 AD=15.1 AS=13.9 PD=21.51 PS=41.39 NRD=2.5308 NRS=2.2458 m=1 r=40 sa=250020 sb=250012 a=10 p=41 mult=1 $X=36800 $Y=0 $D=49
M17 2 3 4 2 nhv L=0.5 W=20 AD=13.9 AS=15.1 PD=41.39 PS=21.51 NRD=2.2458 NRS=2.5308 m=1 r=40 sa=250020 sb=250010 a=10 p=41 mult=1 $X=38810 $Y=0 $D=49
M18 4 3 2 2 nhv L=0.5 W=20 AD=15.1 AS=13.9 PD=21.51 PS=41.39 NRD=2.5308 NRS=2.2458 m=1 r=40 sa=250020 sb=250008 a=10 p=41 mult=1 $X=41400 $Y=0 $D=49
M19 2 3 4 2 nhv L=0.5 W=20 AD=13.9 AS=15.1 PD=41.39 PS=21.51 NRD=2.2458 NRS=2.5308 m=1 r=40 sa=250020 sb=250006 a=10 p=41 mult=1 $X=43410 $Y=0 $D=49
M20 4 3 2 2 nhv L=0.5 W=20 AD=15.1 AS=13.9 PD=21.51 PS=41.39 NRD=2.5308 NRS=2.2458 m=1 r=40 sa=250020 sb=250003 a=10 p=41 mult=1 $X=46000 $Y=0 $D=49
M21 2 3 4 2 nhv L=0.5 W=20 AD=13.9 AS=15.1 PD=41.39 PS=21.51 NRD=2.2458 NRS=2.5308 m=1 r=40 sa=250020 sb=250001 a=10 p=41 mult=1 $X=48010 $Y=0 $D=49
.ENDS
***************************************
.SUBCKT ICV_8
** N=486 EP=0 IP=0 FDC=0
*.SEEDPROM
.ENDS
***************************************
.SUBCKT ICV_9
** N=280 EP=0 IP=0 FDC=0
*.SEEDPROM
.ENDS
***************************************
.SUBCKT ICV_10
** N=513 EP=0 IP=0 FDC=0
*.SEEDPROM
.ENDS
***************************************
.SUBCKT ICV_11
** N=316 EP=0 IP=0 FDC=0
*.SEEDPROM
.ENDS
***************************************
.SUBCKT ICV_12
** N=244 EP=0 IP=0 FDC=0
*.SEEDPROM
.ENDS
***************************************
.SUBCKT ICV_13
** N=273 EP=0 IP=0 FDC=0
*.SEEDPROM
.ENDS
***************************************
.SUBCKT ICV_14
** N=198 EP=0 IP=0 FDC=0
*.SEEDPROM
.ENDS
***************************************
.SUBCKT sky130_fd_pr__hvdftpl1s2__example_55959141808676
** N=88 EP=0 IP=0 FDC=0
.ENDS
***************************************
.SUBCKT sky130_fd_pr__hvdftpl1s__example_55959141808675
** N=59 EP=0 IP=0 FDC=0
.ENDS
***************************************
.SUBCKT sky130_fd_pr__dfl1__example_55959141808662
** N=58 EP=0 IP=0 FDC=0
.ENDS
***************************************
.SUBCKT ICV_15
** N=567 EP=0 IP=4 FDC=0
*.SEEDPROM
.ENDS
***************************************
.SUBCKT ICV_16
** N=398 EP=0 IP=0 FDC=0
*.SEEDPROM
.ENDS
***************************************
.SUBCKT ICV_17
** N=259 EP=0 IP=0 FDC=0
*.SEEDPROM
.ENDS
***************************************
.SUBCKT sky130_fd_pr__hvdfl1sd__example_5595914180851
** N=15 EP=0 IP=0 FDC=0
.ENDS
***************************************
.SUBCKT sky130_fd_pr__model__nfet_highvoltage__example_55959141808664 1 2
** N=7 EP=2 IP=2 FDC=1
M0 1 2 1 1 nhv L=4 W=5 AD=1.325 AS=1.325 PD=10.53 PS=10.53 NRD=0 NRS=0 m=1 r=1.25 sa=2e+06 sb=2e+06 a=20 p=18 mult=1 $X=0 $Y=0 $D=49
.ENDS
***************************************
.SUBCKT sky130_fd_io__sio_clamp_pcap_4x5 1 2
** N=81 EP=2 IP=4 FDC=1
X0 1 2 sky130_fd_pr__model__nfet_highvoltage__example_55959141808664 $T=1145 720 0 0 $X=700 $Y=540
.ENDS
***************************************
.SUBCKT sky130_fd_pr__dfl1sd2__example_55959141808679
** N=22 EP=0 IP=0 FDC=0
.ENDS
***************************************
.SUBCKT sky130_fd_pr__dfl1sd__example_55959141808678
** N=22 EP=0 IP=0 FDC=0
.ENDS
***************************************
.SUBCKT ICV_18 2 4
** N=702 EP=2 IP=88 FDC=1
*.SEEDPROM
X0 2 4 sky130_fd_io__sio_clamp_pcap_4x5 $T=25830 -68720 0 90 $X=19080 $Y=-68720
.ENDS
***************************************
.SUBCKT sky130_fd_io__esd_rcclamp_nfetcap 2 3
** N=122 EP=2 IP=2 FDC=1
*.SEEDPROM
M0 2 3 2 2 nhv L=8 W=5 AD=1.325 AS=1.325 PD=10.53 PS=10.53 NRD=0 NRS=0 m=1 r=0.625 sa=4e+06 sb=4e+06 a=40 p=26 mult=1 $X=895 $Y=630 $D=49
.ENDS
***************************************
.SUBCKT ICV_19 2 4
** N=308 EP=2 IP=282 FDC=3
*.SEEDPROM
X0 2 4 sky130_fd_io__esd_rcclamp_nfetcap $T=7080 -68470 0 90 $X=420 $Y=-68720
X1 2 4 sky130_fd_io__esd_rcclamp_nfetcap $T=13300 -68470 0 90 $X=6640 $Y=-68720
X2 2 4 sky130_fd_io__esd_rcclamp_nfetcap $T=19520 -68470 0 90 $X=12860 $Y=-68720
.ENDS
***************************************
.SUBCKT ICV_20
** N=258 EP=0 IP=8 FDC=0
*.SEEDPROM
.ENDS
***************************************
.SUBCKT ICV_21
** N=1121 EP=0 IP=12 FDC=0
*.SEEDPROM
.ENDS
***************************************
.SUBCKT ICV_22 2 4
** N=308 EP=2 IP=282 FDC=3
*.SEEDPROM
X0 2 4 sky130_fd_io__esd_rcclamp_nfetcap $T=7080 -58710 0 90 $X=420 $Y=-58960
X1 2 4 sky130_fd_io__esd_rcclamp_nfetcap $T=13300 -58710 0 90 $X=6640 $Y=-58960
X2 2 4 sky130_fd_io__esd_rcclamp_nfetcap $T=19520 -58710 0 90 $X=12860 $Y=-58960
.ENDS
***************************************
.SUBCKT ICV_23
** N=241 EP=0 IP=6 FDC=0
*.SEEDPROM
.ENDS
***************************************
.SUBCKT ICV_24
** N=1237 EP=0 IP=0 FDC=0
*.SEEDPROM
.ENDS
***************************************
.SUBCKT ICV_25 2 4
** N=305 EP=2 IP=282 FDC=3
*.SEEDPROM
X0 2 4 sky130_fd_io__esd_rcclamp_nfetcap $T=7080 -48950 0 90 $X=420 $Y=-49200
X1 2 4 sky130_fd_io__esd_rcclamp_nfetcap $T=13300 -48950 0 90 $X=6640 $Y=-49200
X2 2 4 sky130_fd_io__esd_rcclamp_nfetcap $T=19520 -48950 0 90 $X=12860 $Y=-49200
.ENDS
***************************************