* Copyright 2020 The SkyWater PDK Authors
*
* Licensed under the Apache License, Version 2.0 (the "License");
* you may not use this file except in compliance with the License.
* You may obtain a copy of the License at
*
*     https://www.apache.org/licenses/LICENSE-2.0
*
* Unless required by applicable law or agreed to in writing, software
* distributed under the License is distributed on an "AS IS" BASIS,
* WITHOUT WARRANTIES OR CONDITIONS OF ANY KIND, either express or implied.
* See the License for the specific language governing permissions and
* limitations under the License.
*
* SPDX-License-Identifier: Apache-2.0

.SUBCKT sky130_fd_pr__cap_vpp_02p4x04p6_m1m2_noshield C0 C1 SUB
*.PININFO C0:? C1:? SUB:?
X1 C0 C1 SUB sky130_fd_pr__cap_vpp_02p4x04p6_m1m2_noshield
.ENDS sky130_fd_pr__cap_vpp_02p4x04p6_m1m2_noshield


******* EOF

* Copyright 2020 The SkyWater PDK Authors
*
* Licensed under the Apache License, Version 2.0 (the "License");
* you may not use this file except in compliance with the License.
* You may obtain a copy of the License at
*
*     https://www.apache.org/licenses/LICENSE-2.0
*
* Unless required by applicable law or agreed to in writing, software
* distributed under the License is distributed on an "AS IS" BASIS,
* WITHOUT WARRANTIES OR CONDITIONS OF ANY KIND, either express or implied.
* See the License for the specific language governing permissions and
* limitations under the License.
*
* SPDX-License-Identifier: Apache-2.0

.SUBCKT sky130_fd_pr__cap_vpp_02p7x06p1_m1m2m3m4_shieldl1_fingercap C0 C1 SUB Name= Formula= 2= 3= 4= 5= techLibCellName=-1
*.PININFO C0:? C1:? SUB:?
X1
.ENDS sky130_fd_pr__cap_vpp_02p7x06p1_m1m2m3m4_shieldl1_fingercap


******* EOF

* Copyright 2020 The SkyWater PDK Authors
*
* Licensed under the Apache License, Version 2.0 (the "License");
* you may not use this file except in compliance with the License.
* You may obtain a copy of the License at
*
*     https://www.apache.org/licenses/LICENSE-2.0
*
* Unless required by applicable law or agreed to in writing, software
* distributed under the License is distributed on an "AS IS" BASIS,
* WITHOUT WARRANTIES OR CONDITIONS OF ANY KIND, either express or implied.
* See the License for the specific language governing permissions and
* limitations under the License.
*
* SPDX-License-Identifier: Apache-2.0

.SUBCKT sky130_fd_pr__cap_vpp_02p7x11p1_m1m2m3m4_shieldl1_fingercap C0 C1 SUB
*.PININFO C0:? C1:? SUB:?
X1 C0 C1 SUB
+ sky130_fd_pr__cap_vpp_02p7x11p1_m1m2m3m4_shieldl1_fingercap
.ENDS sky130_fd_pr__cap_vpp_02p7x11p1_m1m2m3m4_shieldl1_fingercap


******* EOF

* Copyright 2020 The SkyWater PDK Authors
*
* Licensed under the Apache License, Version 2.0 (the "License");
* you may not use this file except in compliance with the License.
* You may obtain a copy of the License at
*
*     https://www.apache.org/licenses/LICENSE-2.0
*
* Unless required by applicable law or agreed to in writing, software
* distributed under the License is distributed on an "AS IS" BASIS,
* WITHOUT WARRANTIES OR CONDITIONS OF ANY KIND, either express or implied.
* See the License for the specific language governing permissions and
* limitations under the License.
*
* SPDX-License-Identifier: Apache-2.0

.SUBCKT sky130_fd_pr__cap_vpp_02p7x21p1_m1m2m3m4_shieldl1_fingercap C0 C1 SUB
*.PININFO C0:? C1:? SUB:?
X1 C0 C1 SUB
+ sky130_fd_pr__cap_vpp_02p7x21p1_m1m2m3m4_shieldl1_fingercap
.ENDS sky130_fd_pr__cap_vpp_02p7x21p1_m1m2m3m4_shieldl1_fingercap


******* EOF

* Copyright 2020 The SkyWater PDK Authors
*
* Licensed under the Apache License, Version 2.0 (the "License");
* you may not use this file except in compliance with the License.
* You may obtain a copy of the License at
*
*     https://www.apache.org/licenses/LICENSE-2.0
*
* Unless required by applicable law or agreed to in writing, software
* distributed under the License is distributed on an "AS IS" BASIS,
* WITHOUT WARRANTIES OR CONDITIONS OF ANY KIND, either express or implied.
* See the License for the specific language governing permissions and
* limitations under the License.
*
* SPDX-License-Identifier: Apache-2.0

.SUBCKT sky130_fd_pr__cap_vpp_02p7x41p1_m1m2m3m4_shieldl1_fingercap C0 C1 SUB
*.PININFO C0:? C1:? SUB:?
X1 C0 C1 SUB
+ sky130_fd_pr__cap_vpp_02p7x41p1_m1m2m3m4_shieldl1_fingercap
.ENDS sky130_fd_pr__cap_vpp_02p7x41p1_m1m2m3m4_shieldl1_fingercap


******* EOF

* Copyright 2020 The SkyWater PDK Authors
*
* Licensed under the Apache License, Version 2.0 (the "License");
* you may not use this file except in compliance with the License.
* You may obtain a copy of the License at
*
*     https://www.apache.org/licenses/LICENSE-2.0
*
* Unless required by applicable law or agreed to in writing, software
* distributed under the License is distributed on an "AS IS" BASIS,
* WITHOUT WARRANTIES OR CONDITIONS OF ANY KIND, either express or implied.
* See the License for the specific language governing permissions and
* limitations under the License.
*
* SPDX-License-Identifier: Apache-2.0

.SUBCKT sky130_fd_pr__cap_vpp_02p9x06p1_m1m2m3m4_shieldl1_fingercap2 C0 C1 SUB
*.PININFO C0:? C1:? SUB:?
X1 C0 C1 SUB
+ sky130_fd_pr__cap_vpp_02p9x06p1_m1m2m3m4_shieldl1_fingercap2
.ENDS sky130_fd_pr__cap_vpp_02p9x06p1_m1m2m3m4_shieldl1_fingercap2


******* EOF

* Copyright 2020 The SkyWater PDK Authors
*
* Licensed under the Apache License, Version 2.0 (the "License");
* you may not use this file except in compliance with the License.
* You may obtain a copy of the License at
*
*     https://www.apache.org/licenses/LICENSE-2.0
*
* Unless required by applicable law or agreed to in writing, software
* distributed under the License is distributed on an "AS IS" BASIS,
* WITHOUT WARRANTIES OR CONDITIONS OF ANY KIND, either express or implied.
* See the License for the specific language governing permissions and
* limitations under the License.
*
* SPDX-License-Identifier: Apache-2.0

.SUBCKT sky130_fd_pr__cap_vpp_03p9x03p9_m1m2_shieldl1_floatm3 C0 C1 SUB MET3
*.PININFO C0:? C1:? SUB:? MET3:?
X1 C0 C1 SUB MET3
+ sky130_fd_pr__cap_vpp_03p9x03p9_m1m2_shieldl1_floatm3
.ENDS sky130_fd_pr__cap_vpp_03p9x03p9_m1m2_shieldl1_floatm3


******* EOF

* Copyright 2020 The SkyWater PDK Authors
*
* Licensed under the Apache License, Version 2.0 (the "License");
* you may not use this file except in compliance with the License.
* You may obtain a copy of the License at
*
*     https://www.apache.org/licenses/LICENSE-2.0
*
* Unless required by applicable law or agreed to in writing, software
* distributed under the License is distributed on an "AS IS" BASIS,
* WITHOUT WARRANTIES OR CONDITIONS OF ANY KIND, either express or implied.
* See the License for the specific language governing permissions and
* limitations under the License.
*
* SPDX-License-Identifier: Apache-2.0

.SUBCKT sky130_fd_pr__cap_vpp_04p4x04p6_l1m1m2_noshield C0 C1 SUB
*.PININFO C0:? C1:? SUB:?
X1 C0 C1 SUB sky130_fd_pr__cap_vpp_04p4x04p6_l1m1m2_noshield
.ENDS sky130_fd_pr__cap_vpp_04p4x04p6_l1m1m2_noshield


******* EOF

* Copyright 2020 The SkyWater PDK Authors
*
* Licensed under the Apache License, Version 2.0 (the "License");
* you may not use this file except in compliance with the License.
* You may obtain a copy of the License at
*
*     https://www.apache.org/licenses/LICENSE-2.0
*
* Unless required by applicable law or agreed to in writing, software
* distributed under the License is distributed on an "AS IS" BASIS,
* WITHOUT WARRANTIES OR CONDITIONS OF ANY KIND, either express or implied.
* See the License for the specific language governing permissions and
* limitations under the License.
*
* SPDX-License-Identifier: Apache-2.0

.SUBCKT sky130_fd_pr__cap_vpp_04p4x04p6_l1m1m2_noshield_o1 C0 C1 SUB
*.PININFO C0:? C1:? SUB:?
X1 C0 C1 SUB sky130_fd_pr__cap_vpp_04p4x04p6_l1m1m2_noshield_o1
.ENDS sky130_fd_pr__cap_vpp_04p4x04p6_l1m1m2_noshield_o1


******* EOF

* Copyright 2020 The SkyWater PDK Authors
*
* Licensed under the Apache License, Version 2.0 (the "License");
* you may not use this file except in compliance with the License.
* You may obtain a copy of the License at
*
*     https://www.apache.org/licenses/LICENSE-2.0
*
* Unless required by applicable law or agreed to in writing, software
* distributed under the License is distributed on an "AS IS" BASIS,
* WITHOUT WARRANTIES OR CONDITIONS OF ANY KIND, either express or implied.
* See the License for the specific language governing permissions and
* limitations under the License.
*
* SPDX-License-Identifier: Apache-2.0

.SUBCKT sky130_fd_pr__cap_vpp_04p4x04p6_l1m1m2_shieldpo_floatm3 C0 C1 SUB MET3
*.PININFO C0:? C1:? SUB:? MET3:?
X1 C0 C1 SUB MET3
+ sky130_fd_pr__cap_vpp_04p4x04p6_l1m1m2_shieldpo_floatm3
.ENDS sky130_fd_pr__cap_vpp_04p4x04p6_l1m1m2_shieldpo_floatm3


******* EOF

* Copyright 2020 The SkyWater PDK Authors
*
* Licensed under the Apache License, Version 2.0 (the "License");
* you may not use this file except in compliance with the License.
* You may obtain a copy of the License at
*
*     https://www.apache.org/licenses/LICENSE-2.0
*
* Unless required by applicable law or agreed to in writing, software
* distributed under the License is distributed on an "AS IS" BASIS,
* WITHOUT WARRANTIES OR CONDITIONS OF ANY KIND, either express or implied.
* See the License for the specific language governing permissions and
* limitations under the License.
*
* SPDX-License-Identifier: Apache-2.0

.SUBCKT sky130_fd_pr__cap_vpp_04p4x04p6_m1m2_noshield C0 C1 SUB
*.PININFO C0:? C1:? SUB:?
X1 C0 C1 SUB sky130_fd_pr__cap_vpp_04p4x04p6_m1m2_noshield
.ENDS sky130_fd_pr__cap_vpp_04p4x04p6_m1m2_noshield


******* EOF

* Copyright 2020 The SkyWater PDK Authors
*
* Licensed under the Apache License, Version 2.0 (the "License");
* you may not use this file except in compliance with the License.
* You may obtain a copy of the License at
*
*     https://www.apache.org/licenses/LICENSE-2.0
*
* Unless required by applicable law or agreed to in writing, software
* distributed under the License is distributed on an "AS IS" BASIS,
* WITHOUT WARRANTIES OR CONDITIONS OF ANY KIND, either express or implied.
* See the License for the specific language governing permissions and
* limitations under the License.
*
* SPDX-License-Identifier: Apache-2.0

.SUBCKT sky130_fd_pr__cap_vpp_04p4x04p6_m1m2_noshield_o2 C0 C1 SUB
*.PININFO C0:? C1:? SUB:?
X1 C0 C1 SUB sky130_fd_pr__cap_vpp_04p4x04p6_m1m2_noshield_o2
.ENDS sky130_fd_pr__cap_vpp_04p4x04p6_m1m2_noshield_o2


******* EOF

* Copyright 2020 The SkyWater PDK Authors
*
* Licensed under the Apache License, Version 2.0 (the "License");
* you may not use this file except in compliance with the License.
* You may obtain a copy of the License at
*
*     https://www.apache.org/licenses/LICENSE-2.0
*
* Unless required by applicable law or agreed to in writing, software
* distributed under the License is distributed on an "AS IS" BASIS,
* WITHOUT WARRANTIES OR CONDITIONS OF ANY KIND, either express or implied.
* See the License for the specific language governing permissions and
* limitations under the License.
*
* SPDX-License-Identifier: Apache-2.0

.SUBCKT sky130_fd_pr__cap_vpp_04p4x04p6_m1m2_shieldl1 C0 C1 SUB
*.PININFO C0:? C1:? SUB:?
X1 C0 C1 SUB sky130_fd_pr__cap_vpp_04p4x04p6_m1m2_shieldl1
.ENDS sky130_fd_pr__cap_vpp_04p4x04p6_m1m2_shieldl1


******* EOF

* Copyright 2020 The SkyWater PDK Authors
*
* Licensed under the Apache License, Version 2.0 (the "License");
* you may not use this file except in compliance with the License.
* You may obtain a copy of the License at
*
*     https://www.apache.org/licenses/LICENSE-2.0
*
* Unless required by applicable law or agreed to in writing, software
* distributed under the License is distributed on an "AS IS" BASIS,
* WITHOUT WARRANTIES OR CONDITIONS OF ANY KIND, either express or implied.
* See the License for the specific language governing permissions and
* limitations under the License.
*
* SPDX-License-Identifier: Apache-2.0

.SUBCKT sky130_fd_pr__cap_vpp_04p4x04p6_m1m2m3_shieldl1 C0 C1 SUB
*.PININFO C0:? C1:? SUB:?
X1 C0 C1 SUB sky130_fd_pr__cap_vpp_04p4x04p6_m1m2m3_shieldl1
.ENDS sky130_fd_pr__cap_vpp_04p4x04p6_m1m2m3_shieldl1


******* EOF

* Copyright 2020 The SkyWater PDK Authors
*
* Licensed under the Apache License, Version 2.0 (the "License");
* you may not use this file except in compliance with the License.
* You may obtain a copy of the License at
*
*     https://www.apache.org/licenses/LICENSE-2.0
*
* Unless required by applicable law or agreed to in writing, software
* distributed under the License is distributed on an "AS IS" BASIS,
* WITHOUT WARRANTIES OR CONDITIONS OF ANY KIND, either express or implied.
* See the License for the specific language governing permissions and
* limitations under the License.
*
* SPDX-License-Identifier: Apache-2.0

.SUBCKT sky130_fd_pr__cap_vpp_04p4x04p6_m1m2m3_shieldl1m5_floatm4 C0 C1 MET5 SUB
*.PININFO C0:? C1:? MET5:? SUB:?
X1 C0 C1 SUB MET5
+ sky130_fd_pr__cap_vpp_04p4x04p6_m1m2m3_shieldl1m5_floatm4
.ENDS sky130_fd_pr__cap_vpp_04p4x04p6_m1m2m3_shieldl1m5_floatm4


******* EOF

* Copyright 2020 The SkyWater PDK Authors
*
* Licensed under the Apache License, Version 2.0 (the "License");
* you may not use this file except in compliance with the License.
* You may obtain a copy of the License at
*
*     https://www.apache.org/licenses/LICENSE-2.0
*
* Unless required by applicable law or agreed to in writing, software
* distributed under the License is distributed on an "AS IS" BASIS,
* WITHOUT WARRANTIES OR CONDITIONS OF ANY KIND, either express or implied.
* See the License for the specific language governing permissions and
* limitations under the License.
*
* SPDX-License-Identifier: Apache-2.0

.SUBCKT sky130_fd_pr__cap_vpp_05p9x05p9_m1m2m3m4_shieldl1_wafflecap C0 C1 SUB
*.PININFO C0:? C1:? SUB:?
X1 C0 C1 SUB
+ sky130_fd_pr__cap_vpp_05p9x05p9_m1m2m3m4_shieldl1_wafflecap
.ENDS sky130_fd_pr__cap_vpp_05p9x05p9_m1m2m3m4_shieldl1_wafflecap


******* EOF

* Copyright 2020 The SkyWater PDK Authors
*
* Licensed under the Apache License, Version 2.0 (the "License");
* you may not use this file except in compliance with the License.
* You may obtain a copy of the License at
*
*     https://www.apache.org/licenses/LICENSE-2.0
*
* Unless required by applicable law or agreed to in writing, software
* distributed under the License is distributed on an "AS IS" BASIS,
* WITHOUT WARRANTIES OR CONDITIONS OF ANY KIND, either express or implied.
* See the License for the specific language governing permissions and
* limitations under the License.
*
* SPDX-License-Identifier: Apache-2.0

.SUBCKT sky130_fd_pr__cap_vpp_06p8x06p1_l1m1m2m3_shieldpom4 C0 C1 MET4 SUB
*.PININFO C0:? C1:? MET4:? SUB:?
X1 C0 C1 SUB MET4 sky130_fd_pr__cap_vpp_06p8x06p1_l1m1m2m3_shieldpom4
.ENDS sky130_fd_pr__cap_vpp_06p8x06p1_l1m1m2m3_shieldpom4


******* EOF

* Copyright 2020 The SkyWater PDK Authors
*
* Licensed under the Apache License, Version 2.0 (the "License");
* you may not use this file except in compliance with the License.
* You may obtain a copy of the License at
*
*     https://www.apache.org/licenses/LICENSE-2.0
*
* Unless required by applicable law or agreed to in writing, software
* distributed under the License is distributed on an "AS IS" BASIS,
* WITHOUT WARRANTIES OR CONDITIONS OF ANY KIND, either express or implied.
* See the License for the specific language governing permissions and
* limitations under the License.
*
* SPDX-License-Identifier: Apache-2.0

.SUBCKT sky130_fd_pr__cap_vpp_06p8x06p1_m1m2m3_shieldl1m4 C0 C1 MET4 SUB
*.PININFO C0:? C1:? MET4:? SUB:?
X1 C0 C1 SUB MET4 sky130_fd_pr__cap_vpp_06p8x06p1_m1m2m3_shieldl1m4
.ENDS sky130_fd_pr__cap_vpp_06p8x06p1_m1m2m3_shieldl1m4


******* EOF

* Copyright 2020 The SkyWater PDK Authors
*
* Licensed under the Apache License, Version 2.0 (the "License");
* you may not use this file except in compliance with the License.
* You may obtain a copy of the License at
*
*     https://www.apache.org/licenses/LICENSE-2.0
*
* Unless required by applicable law or agreed to in writing, software
* distributed under the License is distributed on an "AS IS" BASIS,
* WITHOUT WARRANTIES OR CONDITIONS OF ANY KIND, either express or implied.
* See the License for the specific language governing permissions and
* limitations under the License.
*
* SPDX-License-Identifier: Apache-2.0

.SUBCKT sky130_fd_pr__cap_vpp_08p6x07p8_l1m1m2_noshield C0 C1 SUB MET3
*.PININFO C0:? C1:? SUB:? MET3:?
X1 C0 C1 SUB MET3 sky130_fd_pr__cap_vpp_08p6x07p8_l1m1m2_noshield
.ENDS sky130_fd_pr__cap_vpp_08p6x07p8_l1m1m2_noshield


******* EOF

* Copyright 2020 The SkyWater PDK Authors
*
* Licensed under the Apache License, Version 2.0 (the "License");
* you may not use this file except in compliance with the License.
* You may obtain a copy of the License at
*
*     https://www.apache.org/licenses/LICENSE-2.0
*
* Unless required by applicable law or agreed to in writing, software
* distributed under the License is distributed on an "AS IS" BASIS,
* WITHOUT WARRANTIES OR CONDITIONS OF ANY KIND, either express or implied.
* See the License for the specific language governing permissions and
* limitations under the License.
*
* SPDX-License-Identifier: Apache-2.0

.SUBCKT sky130_fd_pr__cap_vpp_08p6x07p8_l1m1m2_noshield_o1 C0 C1 SUB
*.PININFO C0:? C1:? SUB:?
X1 C0 C1 SUB sky130_fd_pr__cap_vpp_08p6x07p8_l1m1m2_noshield_o1
.ENDS sky130_fd_pr__cap_vpp_08p6x07p8_l1m1m2_noshield_o1


******* EOF

* Copyright 2020 The SkyWater PDK Authors
*
* Licensed under the Apache License, Version 2.0 (the "License");
* you may not use this file except in compliance with the License.
* You may obtain a copy of the License at
*
*     https://www.apache.org/licenses/LICENSE-2.0
*
* Unless required by applicable law or agreed to in writing, software
* distributed under the License is distributed on an "AS IS" BASIS,
* WITHOUT WARRANTIES OR CONDITIONS OF ANY KIND, either express or implied.
* See the License for the specific language governing permissions and
* limitations under the License.
*
* SPDX-License-Identifier: Apache-2.0

.SUBCKT sky130_fd_pr__cap_vpp_08p6x07p8_l1m1m2_shieldpo_floatm3 C0 C1 SUB MET3
*.PININFO C0:? C1:? SUB:? MET3:?
X1 C0 C1 SUB MET3
+ sky130_fd_pr__cap_vpp_08p6x07p8_l1m1m2_shieldpo_floatm3
.ENDS sky130_fd_pr__cap_vpp_08p6x07p8_l1m1m2_shieldpo_floatm3


******* EOF

* Copyright 2020 The SkyWater PDK Authors
*
* Licensed under the Apache License, Version 2.0 (the "License");
* you may not use this file except in compliance with the License.
* You may obtain a copy of the License at
*
*     https://www.apache.org/licenses/LICENSE-2.0
*
* Unless required by applicable law or agreed to in writing, software
* distributed under the License is distributed on an "AS IS" BASIS,
* WITHOUT WARRANTIES OR CONDITIONS OF ANY KIND, either express or implied.
* See the License for the specific language governing permissions and
* limitations under the License.
*
* SPDX-License-Identifier: Apache-2.0

.SUBCKT sky130_fd_pr__cap_vpp_08p6x07p8_m1m2_noshield C0 C1 SUB
*.PININFO C0:? C1:? SUB:?
X1 C0 C1 SUB sky130_fd_pr__cap_vpp_08p6x07p8_m1m2_noshield
.ENDS sky130_fd_pr__cap_vpp_08p6x07p8_m1m2_noshield


******* EOF

* Copyright 2020 The SkyWater PDK Authors
*
* Licensed under the Apache License, Version 2.0 (the "License");
* you may not use this file except in compliance with the License.
* You may obtain a copy of the License at
*
*     https://www.apache.org/licenses/LICENSE-2.0
*
* Unless required by applicable law or agreed to in writing, software
* distributed under the License is distributed on an "AS IS" BASIS,
* WITHOUT WARRANTIES OR CONDITIONS OF ANY KIND, either express or implied.
* See the License for the specific language governing permissions and
* limitations under the License.
*
* SPDX-License-Identifier: Apache-2.0

.SUBCKT sky130_fd_pr__cap_vpp_08p6x07p8_m1m2_shieldl1 C0 C1 SUB MET3
*.PININFO C0:? C1:? SUB:? MET3:?
X1 C0 C1 SUB MET3 sky130_fd_pr__cap_vpp_08p6x07p8_m1m2_shieldl1
.ENDS sky130_fd_pr__cap_vpp_08p6x07p8_m1m2_shieldl1


******* EOF

* Copyright 2020 The SkyWater PDK Authors
*
* Licensed under the Apache License, Version 2.0 (the "License");
* you may not use this file except in compliance with the License.
* You may obtain a copy of the License at
*
*     https://www.apache.org/licenses/LICENSE-2.0
*
* Unless required by applicable law or agreed to in writing, software
* distributed under the License is distributed on an "AS IS" BASIS,
* WITHOUT WARRANTIES OR CONDITIONS OF ANY KIND, either express or implied.
* See the License for the specific language governing permissions and
* limitations under the License.
*
* SPDX-License-Identifier: Apache-2.0

.SUBCKT sky130_fd_pr__cap_vpp_08p6x07p8_m1m2m3_shieldl1 C0 C1 SUB
*.PININFO C0:? C1:? SUB:?
X1 C0 C1 SUB sky130_fd_pr__cap_vpp_08p6x07p8_m1m2m3_shieldl1
.ENDS sky130_fd_pr__cap_vpp_08p6x07p8_m1m2m3_shieldl1


******* EOF

* Copyright 2020 The SkyWater PDK Authors
*
* Licensed under the Apache License, Version 2.0 (the "License");
* you may not use this file except in compliance with the License.
* You may obtain a copy of the License at
*
*     https://www.apache.org/licenses/LICENSE-2.0
*
* Unless required by applicable law or agreed to in writing, software
* distributed under the License is distributed on an "AS IS" BASIS,
* WITHOUT WARRANTIES OR CONDITIONS OF ANY KIND, either express or implied.
* See the License for the specific language governing permissions and
* limitations under the License.
*
* SPDX-License-Identifier: Apache-2.0

.SUBCKT sky130_fd_pr__cap_vpp_08p6x07p8_m1m2m3_shieldl1m5_floatm4 C0 C1 MET5 SUB
*.PININFO C0:? C1:? MET5:? SUB:?
X1 C0 C1 SUB MET5
+ sky130_fd_pr__cap_vpp_08p6x07p8_m1m2m3_shieldl1m5_floatm4
.ENDS sky130_fd_pr__cap_vpp_08p6x07p8_m1m2m3_shieldl1m5_floatm4


******* EOF

* Copyright 2020 The SkyWater PDK Authors
*
* Licensed under the Apache License, Version 2.0 (the "License");
* you may not use this file except in compliance with the License.
* You may obtain a copy of the License at
*
*     https://www.apache.org/licenses/LICENSE-2.0
*
* Unless required by applicable law or agreed to in writing, software
* distributed under the License is distributed on an "AS IS" BASIS,
* WITHOUT WARRANTIES OR CONDITIONS OF ANY KIND, either express or implied.
* See the License for the specific language governing permissions and
* limitations under the License.
*
* SPDX-License-Identifier: Apache-2.0

.SUBCKT sky130_fd_pr__cap_vpp_11p3x11p3_m1m2m3m4_shieldl1_wafflecap C0 C1 SUB
*.PININFO C0:? C1:? SUB:?
X1 C0 C1 SUB
+ sky130_fd_pr__cap_vpp_11p3x11p3_m1m2m3m4_shieldl1_wafflecap
.ENDS sky130_fd_pr__cap_vpp_11p3x11p3_m1m2m3m4_shieldl1_wafflecap


******* EOF

* Copyright 2020 The SkyWater PDK Authors
*
* Licensed under the Apache License, Version 2.0 (the "License");
* you may not use this file except in compliance with the License.
* You may obtain a copy of the License at
*
*     https://www.apache.org/licenses/LICENSE-2.0
*
* Unless required by applicable law or agreed to in writing, software
* distributed under the License is distributed on an "AS IS" BASIS,
* WITHOUT WARRANTIES OR CONDITIONS OF ANY KIND, either express or implied.
* See the License for the specific language governing permissions and
* limitations under the License.
*
* SPDX-License-Identifier: Apache-2.0

.SUBCKT sky130_fd_pr__cap_vpp_11p3x11p8_l1m1m2m3m4_shieldm5_nhv C0 C1 MET5
*.PININFO C0:? C1:? MET5:?
X1 C0 C1 C1 MET5
+ sky130_fd_pr__cap_vpp_11p3x11p8_l1m1m2m3m4_shieldm5_nhv
.ENDS sky130_fd_pr__cap_vpp_11p3x11p8_l1m1m2m3m4_shieldm5_nhv


******* EOF

* Copyright 2020 The SkyWater PDK Authors
*
* Licensed under the Apache License, Version 2.0 (the "License");
* you may not use this file except in compliance with the License.
* You may obtain a copy of the License at
*
*     https://www.apache.org/licenses/LICENSE-2.0
*
* Unless required by applicable law or agreed to in writing, software
* distributed under the License is distributed on an "AS IS" BASIS,
* WITHOUT WARRANTIES OR CONDITIONS OF ANY KIND, either express or implied.
* See the License for the specific language governing permissions and
* limitations under the License.
*
* SPDX-License-Identifier: Apache-2.0

.SUBCKT sky130_fd_pr__cap_vpp_11p5x11p7_l1m1m2_noshield C0 C1 SUB
*.PININFO C0:? C1:? SUB:?
X1 C0 C1 SUB sky130_fd_pr__cap_vpp_11p5x11p7_l1m1m2_noshield
.ENDS sky130_fd_pr__cap_vpp_11p5x11p7_l1m1m2_noshield


******* EOF

* Copyright 2020 The SkyWater PDK Authors
*
* Licensed under the Apache License, Version 2.0 (the "License");
* you may not use this file except in compliance with the License.
* You may obtain a copy of the License at
*
*     https://www.apache.org/licenses/LICENSE-2.0
*
* Unless required by applicable law or agreed to in writing, software
* distributed under the License is distributed on an "AS IS" BASIS,
* WITHOUT WARRANTIES OR CONDITIONS OF ANY KIND, either express or implied.
* See the License for the specific language governing permissions and
* limitations under the License.
*
* SPDX-License-Identifier: Apache-2.0

.SUBCKT sky130_fd_pr__cap_vpp_11p5x11p7_l1m1m2_shieldpom3 C0 C1 SUB MET3
*.PININFO C0:? C1:? SUB:? MET3:?
X1 C0 C1 SUB MET3 sky130_fd_pr__cap_vpp_11p5x11p7_l1m1m2_shieldpom3
.ENDS sky130_fd_pr__cap_vpp_11p5x11p7_l1m1m2_shieldpom3


******* EOF

* Copyright 2020 The SkyWater PDK Authors
*
* Licensed under the Apache License, Version 2.0 (the "License");
* you may not use this file except in compliance with the License.
* You may obtain a copy of the License at
*
*     https://www.apache.org/licenses/LICENSE-2.0
*
* Unless required by applicable law or agreed to in writing, software
* distributed under the License is distributed on an "AS IS" BASIS,
* WITHOUT WARRANTIES OR CONDITIONS OF ANY KIND, either express or implied.
* See the License for the specific language governing permissions and
* limitations under the License.
*
* SPDX-License-Identifier: Apache-2.0

.SUBCKT sky130_fd_pr__cap_vpp_11p5x11p7_l1m1m2m3_shieldm4 C0 C1 MET4 SUB
*.PININFO C0:? C1:? MET4:? SUB:?
X1 C0 C1 SUB MET4 sky130_fd_pr__cap_vpp_11p5x11p7_l1m1m2m3_shieldm4
.ENDS sky130_fd_pr__cap_vpp_11p5x11p7_l1m1m2m3_shieldm4


******* EOF

* Copyright 2020 The SkyWater PDK Authors
*
* Licensed under the Apache License, Version 2.0 (the "License");
* you may not use this file except in compliance with the License.
* You may obtain a copy of the License at
*
*     https://www.apache.org/licenses/LICENSE-2.0
*
* Unless required by applicable law or agreed to in writing, software
* distributed under the License is distributed on an "AS IS" BASIS,
* WITHOUT WARRANTIES OR CONDITIONS OF ANY KIND, either express or implied.
* See the License for the specific language governing permissions and
* limitations under the License.
*
* SPDX-License-Identifier: Apache-2.0

.SUBCKT sky130_fd_pr__cap_vpp_11p5x11p7_l1m1m2m3_shieldpom4 C0 C1 MET4 SUB
*.PININFO C0:? C1:? MET4:? SUB:?
X1 C0 C1 SUB MET4 sky130_fd_pr__cap_vpp_11p5x11p7_l1m1m2m3_shieldpom4
.ENDS sky130_fd_pr__cap_vpp_11p5x11p7_l1m1m2m3_shieldpom4


******* EOF

* Copyright 2020 The SkyWater PDK Authors
*
* Licensed under the Apache License, Version 2.0 (the "License");
* you may not use this file except in compliance with the License.
* You may obtain a copy of the License at
*
*     https://www.apache.org/licenses/LICENSE-2.0
*
* Unless required by applicable law or agreed to in writing, software
* distributed under the License is distributed on an "AS IS" BASIS,
* WITHOUT WARRANTIES OR CONDITIONS OF ANY KIND, either express or implied.
* See the License for the specific language governing permissions and
* limitations under the License.
*
* SPDX-License-Identifier: Apache-2.0

.SUBCKT sky130_fd_pr__cap_vpp_11p5x11p7_l1m1m2m3m4_shieldm5 C0 C1 MET5 SUB
*.PININFO C0:? C1:? MET5:? SUB:?
X1 C0 C1 SUB MET5 sky130_fd_pr__cap_vpp_11p5x11p7_l1m1m2m3m4_shieldm5
.ENDS sky130_fd_pr__cap_vpp_11p5x11p7_l1m1m2m3m4_shieldm5


******* EOF

* Copyright 2020 The SkyWater PDK Authors
*
* Licensed under the Apache License, Version 2.0 (the "License");
* you may not use this file except in compliance with the License.
* You may obtain a copy of the License at
*
*     https://www.apache.org/licenses/LICENSE-2.0
*
* Unless required by applicable law or agreed to in writing, software
* distributed under the License is distributed on an "AS IS" BASIS,
* WITHOUT WARRANTIES OR CONDITIONS OF ANY KIND, either express or implied.
* See the License for the specific language governing permissions and
* limitations under the License.
*
* SPDX-License-Identifier: Apache-2.0

.SUBCKT sky130_fd_pr__cap_vpp_11p5x11p7_l1m1m2m3m4_shieldpom5 C0 C1 MET5 SUB
*.PININFO C0:? C1:? MET5:? SUB:?
X1 C0 C1 SUB MET5
+ sky130_fd_pr__cap_vpp_11p5x11p7_l1m1m2m3m4_shieldpom5
.ENDS sky130_fd_pr__cap_vpp_11p5x11p7_l1m1m2m3m4_shieldpom5


******* EOF

* Copyright 2020 The SkyWater PDK Authors
*
* Licensed under the Apache License, Version 2.0 (the "License");
* you may not use this file except in compliance with the License.
* You may obtain a copy of the License at
*
*     https://www.apache.org/licenses/LICENSE-2.0
*
* Unless required by applicable law or agreed to in writing, software
* distributed under the License is distributed on an "AS IS" BASIS,
* WITHOUT WARRANTIES OR CONDITIONS OF ANY KIND, either express or implied.
* See the License for the specific language governing permissions and
* limitations under the License.
*
* SPDX-License-Identifier: Apache-2.0

.SUBCKT sky130_fd_pr__cap_vpp_11p5x11p7_l1m1m2m3m4_shieldpom5_x C0 C1 MET5 SUB
*.PININFO C0:? C1:? MET5:? SUB:?
X1 C0 C1 SUB MET5
+ sky130_fd_pr__cap_vpp_11p5x11p7_l1m1m2m3m4_shieldpom5_x
.ENDS sky130_fd_pr__cap_vpp_11p5x11p7_l1m1m2m3m4_shieldpom5_x


******* EOF

* Copyright 2020 The SkyWater PDK Authors
*
* Licensed under the Apache License, Version 2.0 (the "License");
* you may not use this file except in compliance with the License.
* You may obtain a copy of the License at
*
*     https://www.apache.org/licenses/LICENSE-2.0
*