*SPEF "IEEE 1481-1998"
*DESIGN "gpio_control_block"
*DATE "Fri Nov 20 11:58:01 2020"
*VENDOR "AUC CSCE Department"
*PROGRAM "SPEF Extractor"
*VERSION "1.0"
*DESIGN_FLOW "PIN_CAP NONE"
*DIVIDER /
*DELIMITER :
*BUS_DELIMITER []
*T_UNIT 1.00000 NS
*C_UNIT 1.00000 PF
*R_UNIT 1.00000 OHM
*L_UNIT 1.00000 HENRY


*NAME_MAP
*0 mgmt_gpio_in
*1 mgmt_gpio_oeb
*2 mgmt_gpio_out
*3 pad_gpio_ana_en
*4 pad_gpio_ana_pol
*5 pad_gpio_ana_sel
*6 pad_gpio_dm[0]
*7 pad_gpio_dm[1]
*8 pad_gpio_dm[2]
*9 pad_gpio_holdover
*10 pad_gpio_ib_mode_sel
*11 pad_gpio_in
*12 pad_gpio_inenb
*13 pad_gpio_out
*14 pad_gpio_outenb
*15 pad_gpio_slow_sel
*16 pad_gpio_vtrip_sel
*17 resetn
*18 serial_clock
*19 serial_data_in
*20 serial_data_out
*21 user_gpio_in
*22 user_gpio_oeb
*23 user_gpio_out
*24 _000_
*25 _001_
*26 _002_
*27 _003_
*28 _004_
*29 _005_
*30 _006_
*31 _007_
*32 _008_
*33 _009_
*34 _010_
*35 _011_
*36 _012_
*37 _013_
*38 _014_
*39 _015_
*40 _016_
*41 _017_
*42 _018_
*43 _019_
*44 _020_
*45 _021_
*46 _022_
*47 _023_
*48 _024_
*49 _025_
*50 _026_
*51 _027_
*52 _028_
*53 _029_
*54 _030_
*55 _031_
*56 _032_
*57 _033_
*58 _034_
*59 _035_
*60 _036_
*61 _037_
*62 _038_
*63 gpio_logic1
*64 gpio_outenb
*65 load_data
*66 mgmt_ena
*67 shift_register\[0\]
*68 shift_register\[10\]
*69 shift_register\[11\]
*70 shift_register\[1\]
*71 shift_register\[2\]
*72 shift_register\[3\]
*73 shift_register\[4\]
*74 shift_register\[5\]
*75 shift_register\[6\]
*76 shift_register\[7\]
*77 shift_register\[8\]
*78 shift_register\[9\]
*79 clknet_0_serial_clock
*80 clknet_1_0_0_serial_clock
*81 clknet_1_1_0_serial_clock

*D_NET *0 0.0047140853074
*CONN
*P mgmt_gpio_in O
*I _080_:X O
*CAP
0 *0:1 2.215103505e-05
1 *0:2 2.215103505e-05
2 *0:3 0.0005945235199300001
3 *0:4 0.0005945235199300001
4 _080_:X 0.00174036809872
5 *0:5 0.00174036809872
*RES
0 *0:1 *0:2 0.036033333333333334
1 *0:3 *0:4 13.508928571428571
2 _080_:X *0:5 36.55357142857142
3 *0:3 *0:1 0
4 *0:5 *0:4 0
5 _080_:X _080_:X 0
*END

*D_NET *1 0.012526331146200002
*CONN
*P mgmt_gpio_oeb I
*I _073_:A I
*I _071_:A2 I
*CAP
6 *1:1 2.215103505e-05
7 *1:2 2.215103505e-05
8 *1:3 2.5170264480000005e-05
9 _071_:A2 2.5170264480000005e-05
10 *1:4 0.00125658785693
11 *1:5 0.00125658785693
12 *1:6 8.473398044000001e-05
13 *1:7 8.473398044000001e-05
14 *1:8 6.415203344e-05
15 *1:9 0.0015901204028800002
16 *1:10 0.0005614203030800001
17 *1:11 0.0005614203030800001
18 *1:12 0.00272298173024
19 *1:13 0.0015925104304000003
20 *1:14 0.0026564396692800004
21 _073_:A 0.0
*RES
6 *1:1 *1:2 0.036033333333333334
7 *1:3 _071_:A2 0.4107142857142857
8 *1:4 *1:5 28.6875
9 *1:6 *1:7 1.8214285714285714
10 *1:8 *1:9 1.232142857142857
11 *1:10 *1:11 12.749999999999998
12 *1:12 *1:13 97.59999999999998
13 *1:9 *1:13 32.035714285714285
14 *1:12 *1:14 55.857142857142854
15 *1:4 *1:1 0
16 _071_:A2 _071_:A2 0
17 *1:3 *1:11 0
18 *1:14 *1:5 0
19 _073_:A _073_:A 0
20 _073_:A *1:6 0
21 *1:9 *1:7 0
22 *1:8 *1:10 0
23 *1:13 *1:13 0
24 *1:12 *1:12 0
*END

*D_NET *2 0.006513084663720001
*CONN
*P mgmt_gpio_out I
*I _074_:A I
*CAP
22 *2:1 0.00015756105751
23 *2:2 0.00015756105751
24 *2:3 2.215103505e-05
25 *2:4 2.215103505e-05
26 *2:5 0.00218865844176
27 *2:6 0.00218865844176
28 _074_:A 0.00018109734031999995
29 *2:7 0.00018109734031999995
30 *2:8 0.0007070744572200001
31 *2:9 0.0007070744572200001
*RES
25 *2:1 *2:2 3.4910714285714284
26 *2:3 *2:4 0.036033333333333334
27 *2:5 *2:6 46.0
28 _074_:A *2:7 3.6964285714285707
29 *2:8 *2:9 16.08928571428571
30 *2:5 *2:8 0
31 *2:6 *2:2 0
32 *2:1 *2:4 0
33 *2:7 *2:9 0
34 _074_:A _074_:A 0
*END

*D_NET *3 0.004609196703040001
*CONN
*P pad_gpio_ana_en O
*I _092_:Q O
*CAP
32 *3:1 2.514819011e-05
33 *3:2 2.514819011e-05
34 *3:3 2.215103505e-05
35 *3:4 2.215103505e-05
36 *3:5 0.00164291367632
37 *3:6 0.00164291367632
38 *3:7 0.0006143854500400001
39 *3:8 0.0006143854500400001
40 _092_:Q 0.0
*RES
35 *3:1 *3:2 0.45535714285714285
36 *3:3 *3:4 0.036033333333333334
37 *3:5 *3:6 34.5
38 *3:7 *3:8 13.964285714285714
39 *3:6 *3:1 0
40 *3:2 *3:3 0
41 *3:5 *3:7 0
42 _092_:Q _092_:Q 0
43 _092_:Q *3:8 0
*END

*D_NET *4 0.00226153338364
*CONN
*P pad_gpio_ana_pol O
*I _094_:Q O
*CAP
41 *4:1 2.008568592e-05
42 *4:2 0.00080540044512
43 *4:3 0.00030321521165
44 *4:4 0.00030321521165
45 *4:5 2.215103505e-05
46 *4:6 2.215103505e-05
47 _094_:Q 0.0007853147591999999
*RES
44 *4:1 *4:2 0.30357142857142855
45 *4:3 *4:4 6.830357142857142
46 *4:5 *4:6 0.036033333333333334
47 _094_:Q *4:2 16.428571428571427
48 *4:1 *4:4 0
49 *4:3 *4:6 0
50 _094_:Q _094_:Q 0
*END

*D_NET *5 0.00243173841712
*CONN
*P pad_gpio_ana_sel O
*I _093_:Q O
*CAP
48 *5:1 0.00036942164535000004
49 *5:2 0.00036942164535000004
50 *5:3 2.215103505e-05
51 *5:4 2.215103505e-05
52 _093_:Q 0.0008242965281600001
53 *5:5 0.0008242965281600001
*RES
51 *5:1 *5:2 8.348214285714285
52 *5:3 *5:4 0.036033333333333334
53 _093_:Q *5:5 17.25
54 *5:5 *5:2 0
55 *5:1 *5:4 0
56 _093_:Q _093_:Q 0
*END

*D_NET *6 0.00463310382592
*CONN
*P pad_gpio_dm[0] O
*I _089_:Q O
*I _075_:A I
*CAP
54 *6:1 5.1630763590000006e-05
55 *6:2 5.1630763590000006e-05
56 *6:3 2.215103505e-05
57 *6:4 2.215103505e-05
58 _089_:Q 4.466114896e-05
59 *6:5 4.466114896e-05
60 *6:6 0.0005879028765600001
61 *6:7 0.0005879028765600001
62 _075_:A 2.008568592e-05
63 *6:8 0.00086387309856
64 *6:9 0.00084378741264
65 *6:10 0.00074633299024
66 *6:11 0.00074633299024
67 *6:12 0.0
*RES
57 *6:1 *6:2 1.0624999999999998
58 *6:3 *6:4 0.036033333333333334
59 _089_:Q *6:5 0.8214285714285714
60 *6:6 *6:7 13.357142857142856
61 _075_:A *6:8 0.30357142857142855
62 *6:8 *6:9 17.660714285714285
63 *6:10 *6:11 15.607142857142856
64 *6:11 *6:2 0
65 *6:1 *6:4 0
66 _089_:Q _089_:Q 0
67 *6:5 *6:7 0
68 *6:10 *6:6 0
69 _075_:A _075_:A 0
70 *6:9 *6:12 0
*END

*D_NET *7 0.00371299634004
*CONN
*P pad_gpio_dm[1] O
*I _090_:Q O
*I _073_:C I
*CAP
68 *7:1 0.00019728491772999998
69 *7:2 0.00019728491772999998
70 *7:3 2.215103505e-05
71 *7:4 2.215103505e-05
72 *7:5 0.00022007910927999998
73 _090_:Q 0.00100539386848
74 *7:6 8.473398044000001e-05
75 *7:7 8.473398044000001e-05
76 *7:8 0.00054693436832
77 *7:9 0.0005124423764800001
78 _073_:C 3.449199184e-05
79 *7:10 0.0007853147591999999
*RES
71 *7:1 *7:2 4.4017857142857135
72 *7:3 *7:4 0.036033333333333334
73 *7:5 _090_:Q 4.517857142857142
74 *7:6 *7:7 1.8214285714285714
75 *7:8 *7:9 10.678571428571429
76 *7:8 _073_:C 0.6071428571428571
77 _090_:Q *7:10 16.428571428571427
78 *7:10 *7:2 0
79 *7:1 *7:3 0
80 _090_:Q _090_:Q 0
81 *7:5 *7:6 0
82 *7:9 *7:7 0
83 _073_:C _073_:C 0
*END

*D_NET *8 0.006339738060160001
*CONN
*P pad_gpio_dm[2] O
*I _091_:Q O
*I _072_:A I
*CAP
80 *8:1 5.1630763590000006e-05
81 *8:2 5.1630763590000006e-05
82 *8:3 2.215103505e-05
83 *8:4 2.215103505e-05
84 *8:5 8.473398044000001e-05
85 *8:6 0.0010169103122400001
86 *8:7 0.00043507364
87 *8:8 0.00041498795408
88 *8:9 0.0008443822140800001
89 *8:10 0.0008587885200000001
90 _072_:A 3.449199184e-05
91 *8:11 0.0009321763318000001
92 *8:12 0.0007853147591999999
93 *8:13 0.0007853147591999999
94 _091_:Q 0.0
*RES
84 *8:1 *8:2 1.0624999999999998
85 *8:3 *8:4 0.036033333333333334
86 *8:5 *8:6 1.8214285714285714
87 *8:7 *8:8 8.625
88 *8:9 *8:7 0.30357142857142855
89 *8:10 *8:9 17.25
90 _072_:A *8:10 0.6071428571428571
91 *8:6 *8:11 21.25
92 *8:12 *8:13 16.428571428571427
93 *8:13 *8:2 0
94 *8:1 *8:4 0
95 *8:12 *8:6 0
96 *8:8 *8:5 0
97 _072_:A _072_:A 0
98 _091_:Q _091_:Q 0
99 _091_:Q *8:11 0
*END

*D_NET *9 0.0022213620118
*CONN
*P pad_gpio_holdover O
*I _083_:Q O
*CAP
95 *9:1 0.00030321521165
96 *9:2 0.00030321521165
97 *9:3 2.215103505e-05
98 *9:4 2.215103505e-05
99 _083_:Q 0.0007853147591999999
100 *9:5 0.0007853147591999999
*RES
100 *9:1 *9:2 6.830357142857142
101 *9:3 *9:4 0.036033333333333334
102 _083_:Q *9:5 16.428571428571427
103 *9:5 *9:2 0
104 *9:1 *9:3 0
105 _083_:Q _083_:Q 0
*END

*D_NET *10 0.00200950142396
*CONN
*P pad_gpio_ib_mode_sel O
*I _087_:Q O
*CAP
101 *10:1 0.00019728491772999998
102 *10:2 0.00019728491772999998
103 *10:3 2.215103505e-05
104 *10:4 2.215103505e-05
105 _087_:Q 0.0007853147591999999
106 *10:5 0.0007853147591999999
*RES
106 *10:1 *10:2 4.4017857142857135
107 *10:3 *10:4 0.036033333333333334
108 _087_:Q *10:5 16.428571428571427
109 *10:5 *10:1 0
110 *10:2 *10:4 0
111 _087_:Q _087_:Q 0
*END

*D_NET *11 0.0067715184751200004
*CONN
*P pad_gpio_in I
*I _080_:B I
*I _077_:B I
*CAP
107 *11:1 1.1906903370000003e-05
108 *11:2 1.1906903370000003e-05
109 *11:3 2.215103505e-05
110 *11:4 2.215103505e-05
111 *11:5 0.00078082498208
112 *11:6 0.00074633299024
113 _077_:B 3.449199184e-05
114 *11:7 0.0010778304859400002
115 *11:8 0.0010778304859400002
116 _080_:B 0.00025906087823999996
117 *11:9 0.00025906087823999996
118 *11:10 0.00014211557136
119 *11:11 0.0007520123702399999
120 *11:12 0.00048197258264000005
121 *11:13 0.00048197258264000005
122 *11:14 0.00060989679888
*RES
112 *11:1 *11:2 0.15178571428571427
113 *11:3 *11:4 0.036033333333333334
114 *11:5 *11:6 15.607142857142856
115 *11:5 _077_:B 0.6071428571428571
116 *11:7 *11:8 24.58928571428571
117 _080_:B *11:9 5.339285714285714
118 *11:10 *11:11 2.875
119 *11:12 *11:13 10.928571428571427
120 *11:11 *11:14 12.732142857142856
121 *11:14 *11:2 0
122 *11:1 *11:4 0
123 *11:6 *11:13 0
124 _077_:B _077_:B 0
125 *11:11 *11:8 0
126 *11:9 *11:7 0
127 _080_:B _080_:B 0
128 *11:10 *11:12 0
*END

*D_NET *12 0.00244572179512
*CONN
*P pad_gpio_inenb O
*I _086_:Q O
*CAP
123 *12:1 0.00039590421883000006
124 *12:2 0.00039590421883000006
125 *12:3 2.215103505e-05
126 *12:4 2.215103505e-05
127 _086_:Q 0.0008048056436799999
128 *12:5 0.0008048056436799999
*RES
129 *12:1 *12:2 8.95535714285714
130 *12:3 *12:4 0.036033333333333334
131 _086_:Q *12:5 16.83928571428571
132 *12:5 *12:1 0
133 *12:2 *12:4 0
134 _086_:Q _086_:Q 0
*END

*D_NET *13 0.004512918954800001
*CONN
*P pad_gpio_out O
*I _076_:X O
*CAP
129 *13:1 2.215103505e-05
130 *13:2 2.215103505e-05
131 *13:3 1.1906903370000003e-05
132 *13:4 1.1906903370000003e-05
133 *13:5 0.0010962735555
134 *13:6 0.0010962735555
135 *13:7 2.514819011e-05
136 *13:8 2.514819011e-05
137 *13:9 8.473398044000001e-05
138 *13:10 8.473398044000001e-05
139 *13:11 0.0006488785678399999
140 *13:12 0.0006488785678399999
141 *13:13 6.415203344e-05
142 *13:14 6.415203344e-05
143 *13:15 0.00030321521165
144 *13:16 0.00030321521165
145 _076_:X 0.0
*RES
135 *13:1 *13:2 0.036033333333333334
136 *13:3 *13:4 0.15178571428571427
137 *13:5 *13:6 3.963666666666667
138 *13:7 *13:8 0.45535714285714285
139 *13:9 *13:10 1.8214285714285714
140 *13:11 *13:12 13.553571428571427
141 *13:13 *13:14 1.232142857142857
142 *13:15 *13:16 6.830357142857142
143 *13:16 *13:1 0
144 _076_:X _076_:X 0
145 _076_:X *13:3 0
146 *13:4 *13:5 0
147 *13:7 *13:6 0
148 *13:13 *13:8 0
149 *13:14 *13:9 0
150 *13:11 *13:10 0
151 *13:12 *13:15 0
*END

*D_NET *14 0.0033208854554
*CONN
*P pad_gpio_outenb O
*I _071_:X O
*CAP
146 _071_:X 0.00014211557136
147 *14:1 0.0001766075632
148 *14:2 0.00103420648032
149 *14:3 4.834913217000001e-05
150 *14:4 2.514819011e-05
151 *14:5 0.00016090006946
152 *14:6 0.0001376991274
153 *14:7 0.00029807241645
154 *14:8 0.00029807241645
155 *14:9 0.00099971448848
*RES
152 _071_:X *14:1 2.875
153 *14:1 *14:2 0.6071428571428571
154 *14:3 *14:4 0.45535714285714285
155 *14:3 *14:5 0.4107142857142857
156 *14:5 *14:6 3.035714285714285
157 *14:7 *14:8 1.0449666666666666
158 *14:2 *14:9 20.94642857142857
159 _071_:X _071_:X 0
160 *14:9 *14:4 0
161 *14:6 *14:7 0
*END

*D_NET *15 0.00245970517312
*CONN
*P pad_gpio_slow_sel O
*I _084_:Q O
*CAP
156 *15:1 0.00042238679231000007
157 *15:2 0.00042238679231000007
158 *15:3 2.215103505e-05
159 *15:4 2.215103505e-05
160 _084_:Q 0.0007853147591999999
161 *15:5 0.0007853147591999999
*RES
162 *15:1 *15:2 9.5625
163 *15:3 *15:4 0.036033333333333334
164 _084_:Q *15:5 16.428571428571427
165 *15:5 *15:1 0
166 *15:2 *15:3 0
167 _084_:Q _084_:Q 0
*END

*D_NET *16 0.004107954482400001
*CONN
*P pad_gpio_vtrip_sel O
*I _085_:Q O
*CAP
162 *16:1 2.215103505e-05
163 *16:2 2.215103505e-05
164 *16:3 0.00036942164535000004
165 *16:4 0.00036942164535000004
166 _085_:Q 0.0016624045608000001
167 *16:5 0.0016624045608000001
*RES
168 *16:1 *16:2 0.036033333333333334
169 *16:3 *16:4 8.348214285714285
170 _085_:Q *16:5 34.910714285714285
171 *16:4 *16:2 0
172 *16:5 *16:3 0
173 _085_:Q _085_:Q 0
*END

*D_NET *17 0.005374039424439999
*CONN
*P resetn I
*I _078_:A I
*I _039_:B I
*CAP
168 *17:1 0.00023038813458000002
169 *17:2 0.00023038813458000002
170 _039_:B 8.364291792e-05
171 *17:3 8.364291792e-05
172 _078_:A 2.008568592e-05
173 *17:4 0.00232568943456
174 *17:5 2.514819011e-05
175 *17:6 2.514819011e-05
176 *17:7 2.215103505e-05
177 *17:8 2.215103505e-05
178 *17:9 0.00230560374864
*RES
174 *17:1 *17:2 5.160714285714286
175 _039_:B *17:3 1.6428571428571428
176 _078_:A *17:4 0.30357142857142855
177 *17:5 *17:6 0.45535714285714285
178 *17:7 *17:8 0.036033333333333334
179 *17:4 *17:9 48.46428571428571
180 _078_:A _078_:A 0
181 _078_:A *17:2 0
182 *17:3 *17:1 0
183 _039_:B _039_:B 0
184 *17:9 *17:6 0
185 *17:5 *17:7 0
*END

*D_NET *18 0.007290479281039999
*CONN
*P serial_clock I
*I clkbuf_0_serial_clock:A I
*CAP
179 *18:1 2.215103505e-05
180 *18:2 2.215103505e-05
181 clkbuf_0_serial_clock:A 2.008568592e-05
182 *18:3 0.00162401759328
183 *18:4 0.0016310171934199999
184 *18:5 0.00100730889006
185 *18:6 0.000980223604
186 *18:7 0.00099176212213
187 *18:8 0.00099176212213
*RES
186 *18:1 *18:2 0.036033333333333334
187 clkbuf_0_serial_clock:A *18:3 0.30357142857142855
188 *18:4 *18:5 33.01176470588235
189 *18:5 *18:6 20.535714285714285
190 *18:3 *18:4 33.67857142857142
191 *18:7 *18:8 22.616071428571423
192 *18:8 *18:2 0
193 clkbuf_0_serial_clock:A clkbuf_0_serial_clock:A 0
194 *18:4 *18:4 0
195 *18:5 *18:5 0
196 *18:6 *18:7 0
*END

*D_NET *19 0.00550894283488
*CONN
*P serial_data_in I
*I ANTENNA_0:DIODE I
*I _095_:D I
*CAP
188 *19:1 2.215103505e-05
189 *19:2 2.215103505e-05
190 *19:3 0.00063424738015
191 *19:4 0.00063424738015
192 _095_:D 0.00022007910927999998
193 *19:5 0.00025457110112
194 *19:6 0.00023508021663999997
195 ANTENNA_0:DIODE 0.00184350190112
196 *19:7 0.00164291367632
*RES
197 *19:1 *19:2 0.036033333333333334
198 *19:3 *19:4 14.419642857142854
199 _095_:D *19:5 4.517857142857142
200 *19:6 *19:5 0.6071428571428571
201 *19:6 ANTENNA_0:DIODE 4.107142857142857
202 ANTENNA_0:DIODE *19:7 34.5
203 *19:4 *19:1 0
204 *19:7 *19:3 0
205 ANTENNA_0:DIODE ANTENNA_0:DIODE 0
206 _095_:D _095_:D 0
*END

*D_NET *20 0.0041681322656
*CONN
*P serial_data_out O
*I _107_:Q O
*I _091_:D I
*CAP
197 *20:1 9.797526718e-05
198 *20:2 9.797526718e-05
199 *20:3 0.00023956999375999996
200 _091_:D 0.0009469212150399999
201 *20:4 0.00085934925473
202 *20:5 0.00085934925473
203 *20:6 0.00017982039585
204 *20:7 0.00017982039585
205 *20:8 0.0007073512212799999
206 _107_:Q 0.0
*RES
207 *20:1 *20:2 2.1249999999999996
208 *20:3 _091_:D 4.928571428571428
209 *20:4 *20:5 19.580357142857142
210 *20:6 *20:7 0.6125666666666667
211 _091_:D *20:8 14.785714285714283
212 _091_:D _091_:D 0
213 _107_:Q _107_:Q 0
214 _107_:Q *20:2 0
215 *20:3 *20:1 0
216 *20:8 *20:4 0
217 *20:5 *20:6 0
*END

*D_NET *21 0.0043833527372
*CONN
*P user_gpio_in O
*I gpio_in_buf:Z O
*CAP
207 *21:1 6.487205033e-05
208 *21:2 6.487205033e-05
209 *21:3 2.215103505e-05
210 *21:4 2.215103505e-05
211 *21:5 0.0016624045608000001
212 *21:6 0.0016624045608000001
213 *21:7 0.00044224872242
214 *21:8 0.00044224872242
215 gpio_in_buf:Z 0.0
*RES
218 *21:1 *21:2 1.3660714285714284
219 *21:3 *21:4 0.036033333333333334
220 *21:5 *21:6 34.910714285714285
221 *21:7 *21:8 10.017857142857142
222 *21:6 *21:1 0
223 *21:2 *21:3 0
224 *21:5 *21:8 0
225 gpio_in_buf:Z gpio_in_buf:Z 0
226 gpio_in_buf:Z *21:7 0
*END

*D_NET *22 0.011544146487919998
*CONN
*P user_gpio_oeb I
*I _071_:B1 I
*CAP
216 *22:1 2.215103505e-05
217 *22:2 2.215103505e-05
218 *22:3 0.0014684484447700001
219 *22:4 0.0014684484447700001
220 *22:5 3.176883348000001e-05
221 *22:6 3.176883348000001e-05
222 *22:7 2.514819011e-05
223 *22:8 4.834913217000001e-05
224 *22:9 8.807299239e-05
225 *22:10 6.487205033e-05
226 *22:11 4.466114896e-05
227 *22:12 6.474683488e-05
228 *22:13 0.0005520189468800001
229 *22:14 0.0005520189468800001
230 *22:15 0.0026570344707200003
231 *22:16 0.0008827691816
232 *22:17 0.0008827691816
233 *22:18 0.0026369487848000002
234 _071_:B1 0.0
*RES
227 *22:1 *22:2 0.036033333333333334
228 *22:3 *22:4 33.544642857142854
229 *22:5 *22:6 0.6071428571428571
230 *22:7 *22:8 0.45535714285714285
231 *22:8 *22:9 0.4107142857142857
232 *22:10 *22:9 1.3660714285714284
233 *22:11 *22:12 0.8214285714285714
234 *22:12 *22:13 0.30357142857142855
235 *22:13 *22:14 11.089285714285714
236 *22:15 *22:14 0.30357142857142855
237 *22:16 *22:17 18.482142857142854
238 *22:15 *22:18 55.44642857142857
239 *22:4 *22:1 0
240 *22:18 *22:3 0
241 *22:16 *22:5 0
242 _071_:B1 _071_:B1 0
243 _071_:B1 *22:6 0
244 *22:17 *22:7 0
245 *22:11 *22:10 0
*END

*D_NET *23 0.01226980465844
*CONN
*P user_gpio_out I
*I _076_:B2 I
*CAP
235 *23:1 2.215103505e-05
236 *23:2 2.215103505e-05
237 *23:3 0.0017994806132700003
238 *23:4 0.0017994806132700003
239 *23:5 0.0001376991274
240 *23:6 0.0001376991274
241 *23:7 0.00146065923078
242 *23:8 0.0027665484909399998
243 *23:9 0.0014090230625599998
244 *23:10 0.00271491232272
245 _076_:B2 0.0
*RES
246 *23:1 *23:2 0.036033333333333334
247 *23:3 *23:4 41.13392857142857
248 *23:5 *23:6 3.035714285714285
249 *23:7 *23:8 73.19999999999999
250 *23:9 *23:7 29.571428571428566
251 *23:8 *23:10 57.08928571428571
252 *23:4 *23:2 0
253 *23:10 *23:3 0
254 _076_:B2 _076_:B2 0
255 _076_:B2 *23:5 0
256 *23:9 *23:6 0
257 *23:7 *23:7 0
258 *23:8 *23:8 0
*END

*D_NET *24 0.00233073545204
*CONN
*I gpio_in_buf:A I
*I _077_:Y O
*CAP
246 *24:1 0.00016160645584
247 *24:2 0.00018169214176000001
248 gpio_in_buf:A 2.008568592e-05
249 *24:3 0.00048846171488
250 *24:4 0.00045396972304
251 _077_:Y 3.449199184e-05
252 *24:5 0.0004952138693800001
253 *24:6 0.0004952138693800001
*RES
259 *24:1 *24:2 3.2857142857142856
260 *24:2 gpio_in_buf:A 0.30357142857142855
261 *24:3 *24:4 9.446428571428571
262 _077_:Y *24:3 0.6071428571428571
263 *24:5 *24:6 11.232142857142856
264 *24:1 *24:6 0
265 gpio_in_buf:A gpio_in_buf:A 0
266 *24:4 *24:5 0
267 _077_:Y _077_:Y 0
*END

*D_NET *25 0.0027270916223599995
*CONN
*I _082_:SET_B I
*I _069_:X O
*CAP
254 _069_:X 2.5170264480000005e-05
255 *25:1 2.5170264480000005e-05
256 _082_:SET_B 0.00018109734031999995
257 *25:2 0.00018109734031999995
258 *25:3 0.00115727820638
259 *25:4 0.00115727820638
*RES
268 _069_:X *25:1 0.4107142857142857
269 _082_:SET_B *25:2 3.6964285714285707
270 *25:3 *25:4 26.41071428571428
271 *25:1 *25:4 0
272 _069_:X _069_:X 0
273 *25:2 *25:3 0
*END

*D_NET *26 0.00268690765916
*CONN
*I _083_:RESET_B I
*I _068_:X O
*CAP
260 _068_:X 0.00060989679888
261 *26:1 0.00060989679888
262 *26:2 0.0007335570307000001
263 *26:3 0.0007335570307000001
264 _083_:RESET_B 0.0
*RES
274 _068_:X *26:1 12.732142857142856
275 *26:2 *26:3 16.69642857142857
276 _068_:X _068_:X 0
277 *26:1 *26:2 0
278 _083_:RESET_B *26:3 0
*END

*D_NET *27 0.0028724458760799997
*CONN
*I _084_:RESET_B I
*I _067_:X O
*CAP
265 *27:1 0.00047405540895999995
266 *27:2 0.00039609187104
267 *27:3 0.00037600618512
268 *27:4 0.00019066427435999997
269 *27:5 0.00019066427435999997
270 *27:6 0.0003954970696
271 _084_:RESET_B 0.0003954970696
272 _067_:X 0.00045396972304
*RES
279 *27:1 *27:2 0.30357142857142855
280 *27:2 *27:3 7.803571428571428
281 *27:4 *27:5 4.249999999999999
282 *27:6 _084_:RESET_B 8.214285714285714
283 _067_:X *27:1 9.446428571428571
284 _067_:X _067_:X 0
285 *27:3 *27:5 0
286 *27:6 *27:4 0
*END

*D_NET *28 0.00205165705132
*CONN
*I _085_:RESET_B I
*I _066_:X O
*CAP
273 *28:1 4.501012022000001e-05
274 *28:2 4.501012022000001e-05
275 *28:3 0.0009607327195200001
276 *28:4 0.00098081840544
277 _085_:RESET_B 2.008568592e-05
278 _066_:X 0.0
*RES
287 *28:1 *28:2 0.9107142857142857
288 *28:3 *28:4 20.124999999999996
289 _085_:RESET_B *28:4 0.30357142857142855
290 _066_:X _066_:X 0
291 _066_:X *28:2 0
292 *28:3 *28:1 0
*END

*D_NET *29 0.00362855434648
*CONN
*I _086_:RESET_B I
*I _065_:X O
*CAP
279 _065_:X 6.415203344e-05
280 *29:1 6.415203344e-05
281 *29:2 0.0001031338024
282 *29:3 0.00012321948832
283 *29:4 0.00039609187104
284 *29:5 0.00039609187104
285 *29:6 0.00029863744863999997
286 *29:7 0.00029863744863999997
287 _086_:RESET_B 2.008568592e-05
288 *29:8 0.0009321763318000001
289 *29:9 0.0009321763318000001
*RES
293 _065_:X *29:1 1.232142857142857
294 *29:2 *29:3 2.0535714285714284
295 *29:4 *29:3 0.30357142857142855
296 *29:4 *29:5 7.803571428571428
297 *29:5 *29:6 0.30357142857142855
298 *29:6 *29:7 5.75
299 *29:7 _086_:RESET_B 0.30357142857142855
300 *29:8 *29:9 21.25
301 *29:1 *29:9 0
302 _065_:X _065_:X 0
303 *29:2 *29:8 0
*END

*D_NET *30 0.00189290727184
*CONN
*I _087_:RESET_B I
*I _063_:X O
*CAP
290 *30:1 8.847486816e-05
291 _063_:X 2.5170264480000005e-05
292 *30:2 0.00043931078880000003
293 *30:3 0.00037600618512
294 *30:4 0.00048197258264000005
295 *30:5 0.00048197258264000005
296 _087_:RESET_B 0.0
*RES
304 *30:1 _063_:X 0.4107142857142857
305 *30:1 *30:2 1.2142857142857142
306 *30:2 *30:3 7.803571428571428
307 *30:4 *30:5 10.928571428571427
308 _063_:X _063_:X 0
309 *30:3 *30:4 0
310 _087_:RESET_B *30:5 0
*END

*D_NET *31 0.00196320579196
*CONN
*I _088_:SET_B I
*I _062_:X O
*CAP
297 _088_:SET_B 0.00014211557136
298 *31:1 0.00014211557136
299 *31:2 0.0008394873246200001
300 *31:3 0.0008394873246200001
301 _062_:X 0.0
*RES
311 _088_:SET_B *31:1 2.875
312 *31:2 *31:3 19.125
313 _062_:X _062_:X 0
314 _062_:X *31:3 0
315 *31:1 *31:2 0
*END

*D_NET *32 0.0026756106579200003
*CONN
*I _089_:SET_B I
*I _061_:X O
*CAP
302 *32:1 2.5170264480000005e-05
303 _061_:X 2.5170264480000005e-05
304 _089_:SET_B 0.00014211557136
305 *32:2 0.00014211557136
306 *32:3 0.0011705194931200002
307 *32:4 0.0011705194931200002
*RES
316 *32:1 _061_:X 0.4107142857142857
317 _089_:SET_B *32:2 2.875
318 *32:3 *32:4 26.71428571428571
319 _061_:X _061_:X 0
320 *32:1 *32:3 0
321 *32:2 *32:4 0
*END

*D_NET *33 0.00253079703884
*CONN
*I _090_:RESET_B I
*I _060_:X O
*CAP
308 *33:1 4.501012022000001e-05
309 *33:2 4.501012022000001e-05
310 *33:3 0.00047405540895999995
311 *33:4 0.00076641867616
312 _090_:RESET_B 0.00045396972304
313 *33:5 0.00074633299024
314 _060_:X 0.0
*RES
322 *33:1 *33:2 0.9107142857142857
323 *33:3 *33:4 0.30357142857142855
324 *33:3 _090_:RESET_B 9.446428571428571
325 *33:5 *33:4 15.607142857142856
326 *33:5 *33:1 0
327 _060_:X _060_:X 0
328 _060_:X *33:2 0
*END

*D_NET *34 0.0029713829070800004
*CONN
*I _091_:RESET_B I
*I _059_:X O
*CAP
315 _059_:X 0.00072684210576
316 *34:1 0.00079014670944
317 *34:2 0.00026389282848
318 *34:3 0.00020058822479999998
319 *34:4 0.00017742298762
320 *34:5 0.00017742298762
321 *34:6 0.00031753353168
322 _091_:RESET_B 0.00031753353168
*RES
329 _059_:X *34:1 15.19642857142857
330 *34:1 *34:2 1.2142857142857142
331 *34:2 *34:3 4.107142857142857
332 *34:4 *34:5 3.946428571428571
333 *34:6 _091_:RESET_B 6.571428571428571
334 _059_:X _059_:X 0
335 *34:3 *34:4 0
336 *34:6 *34:5 0
*END

*D_NET *35 0.0009208545958000001
*CONN
*I _092_:RESET_B I
*I _057_:X O
*CAP
323 *35:1 0.00041576614894
324 *35:2 0.00041576614894
325 *35:3 4.466114896e-05
326 _092_:RESET_B 4.466114896e-05
327 _057_:X 0.0
*RES
337 *35:1 *35:2 9.410714285714285
338 *35:3 _092_:RESET_B 0.8214285714285714
339 _057_:X _057_:X 0
340 _057_:X *35:1 0
341 *35:3 *35:2 0
*END

*D_NET *36 0.0014475377003600003
*CONN
*I _093_:RESET_B I
*I _056_:X O
*CAP
328 *36:1 0.00012262468688
329 _056_:X 0.00012262468688
330 *36:2 0.0006011441633000001
331 *36:3 0.0006011441633000001
332 _093_:RESET_B 0.0
*RES
342 *36:1 _056_:X 2.464285714285714
343 *36:2 *36:3 13.660714285714285
344 _056_:X _056_:X 0
345 *36:1 *36:2 0
346 _093_:RESET_B *36:3 0
*END

*D_NET *37 0.0026441974127600003
*CONN
*I _094_:RESET_B I
*I _055_:X O
*CAP
333 _055_:X 0.0005904059144000001
334 *37:1 0.0005904059144000001
335 *37:2 0.00030983585502
336 *37:3 0.00030983585502
337 *37:4 4.466114896e-05
338 *37:5 6.474683488e-05
339 *37:6 0.00035711010208
340 *37:7 0.00035711010208
341 _094_:RESET_B 2.008568592e-05
*RES
347 _055_:X *37:1 12.321428571428571
348 *37:2 *37:3 6.982142857142857
349 *37:4 *37:5 0.8214285714285714
350 *37:6 *37:5 0.30357142857142855
351 *37:6 *37:7 6.982142857142857
352 *37:7 _094_:RESET_B 0.30357142857142855
353 _055_:X _055_:X 0
354 *37:1 *37:3 0
355 *37:4 *37:2 0
*END

*D_NET *38 0.00345506249264
*CONN
*I _095_:RESET_B I
*I _054_:X O
*CAP
342 *38:1 0.00047405540895999995
343 *38:2 0.00047405540895999995
344 *38:3 0.00045396972304
345 *38:4 0.00048197258264000005
346 *38:5 0.00048197258264000005
347 *38:6 0.00031753353168
348 _095_:RESET_B 0.00031753353168
349 _054_:X 0.00045396972304
*RES
356 *38:1 *38:2 0.30357142857142855
357 *38:1 *38:3 9.446428571428571
358 *38:4 *38:5 10.928571428571427
359 *38:6 _095_:RESET_B 6.571428571428571
360 _054_:X *38:2 9.446428571428571
361 _054_:X _054_:X 0
362 *38:3 *38:4 0
363 *38:6 *38:5 0
*END

*D_NET *39 0.0007075098254399999
*CONN
*I _096_:RESET_B I
*I _053_:X O
*CAP
350 *39:1 0.0002701119948
351 *39:2 0.0002701119948
352 *39:3 8.364291792e-05
353 _096_:RESET_B 8.364291792e-05
354 _053_:X 0.0
*RES
364 *39:1 *39:2 6.07142857142857
365 *39:3 _096_:RESET_B 1.6428571428571428
366 _053_:X _053_:X 0
367 _053_:X *39:2 0
368 *39:3 *39:1 0
*END

*D_NET *40 0.0012583328737600001
*CONN
*I _097_:RESET_B I
*I _051_:X O
*CAP
355 *40:1 5.825140696e-05
356 *40:2 5.825140696e-05
357 *40:3 0.00057091502992
358 _097_:RESET_B 0.00057091502992
359 _051_:X 0.0
*RES
369 *40:1 *40:2 1.2142857142857142
370 *40:3 _097_:RESET_B 11.910714285714285
371 *40:3 *40:1 0
372 _051_:X _051_:X 0
373 _051_:X *40:2 0
*END

*D_NET *41 0.0007089940079600001
*CONN
*I _098_:RESET_B I
*I _050_:X O
*CAP
360 *41:1 0.00030983585502
361 *41:2 0.00030983585502
362 *41:3 4.466114896e-05
363 _098_:RESET_B 4.466114896e-05
364 _050_:X 0.0
*RES
374 *41:1 *41:2 6.982142857142857
375 *41:3 _098_:RESET_B 0.8214285714285714
376 _050_:X _050_:X 0
377 _050_:X *41:1 0
378 *41:3 *41:2 0
*END

*D_NET *42 0.00179934310336
*CONN
*I _099_:RESET_B I
*I _049_:X O
*CAP
365 *42:1 0.00032307714176
366 *42:2 0.00032307714176
367 *42:3 0.00020058822479999998
368 _099_:RESET_B 0.00020058822479999998
369 _049_:X 0.00037600618512
370 *42:4 0.00037600618512
*RES
379 *42:1 *42:2 7.285714285714286
380 *42:3 _099_:RESET_B 4.107142857142857
381 _049_:X *42:4 7.803571428571428
382 _049_:X _049_:X 0
383 *42:4 *42:2 0
384 *42:3 *42:1 0
*END

*D_NET *43 0.00086851518416
*CONN
*I _100_:RESET_B I
*I _048_:X O
*CAP
371 *43:1 5.825140696e-05
372 *43:2 5.825140696e-05
373 *43:3 0.00037600618512
374 _100_:RESET_B 0.00037600618512
375 _048_:X 0.0
*RES
385 *43:1 *43:2 1.2142857142857142
386 *43:3 _100_:RESET_B 7.803571428571428
387 _048_:X _048_:X 0
388 _048_:X *43:2 0
389 *43:3 *43:1 0
*END

*D_NET *44 0.0032550261975600003
*CONN
*I _101_:RESET_B I
*I _047_:X O
*CAP
376 _047_:X 0.00060989679888
377 *44:1 0.00060989679888
378 *44:2 0.00068059188374
379 *44:3 0.00068059188374
380 *44:4 0.00033702441616
381 _101_:RESET_B 0.00033702441616
*RES
390 _047_:X *44:1 12.732142857142856
391 *44:2 *44:3 15.482142857142856
392 *44:4 _101_:RESET_B 6.982142857142857
393 _047_:X _047_:X 0
394 *44:1 *44:3 0
395 *44:4 *44:2 0
*END

*D_NET *45 0.00146511517872
*CONN
*I _102_:RESET_B I
*I _045_:X O
*CAP
382 *45:1 0.00037604228872
383 *45:2 0.00037604228872
384 *45:3 0.00035651530064
385 _102_:RESET_B 0.00035651530064
386 _045_:X 0.0
*RES
396 *45:1 *45:2 8.499999999999998
397 *45:3 _102_:RESET_B 7.3928571428571415
398 _045_:X _045_:X 0
399 _045_:X *45:2 0
400 *45:3 *45:1 0
*END

*D_NET *46 0.00361437309032
*CONN
*I _103_:RESET_B I
*I _044_:X O
*CAP
387 *46:1 2.5170264480000005e-05
388 *46:2 4.5255950400000005e-05
389 _103_:RESET_B 2.008568592e-05
390 _044_:X 4.466114896e-05
391 *46:3 4.466114896e-05
392 *46:4 4.501012022000001e-05
393 *46:5 4.501012022000001e-05
394 *46:6 0.00090226006608
395 *46:7 0.00090226006608
396 *46:8 0.0007699992595
397 *46:9 2.3200942060000004e-05
398 *46:10 0.00074679831744
*RES
401 *46:1 *46:2 0.4107142857142857
402 *46:2 _103_:RESET_B 0.30357142857142855
403 _044_:X *46:3 0.8214285714285714
404 *46:4 *46:5 0.9107142857142857
405 *46:6 *46:7 18.892857142857142
406 *46:8 *46:9 0.4107142857142857
407 *46:8 *46:10 16.999999999999996
408 *46:1 *46:10 0
409 _044_:X _044_:X 0
410 *46:3 *46:4 0
411 *46:6 *46:5 0
412 *46:7 *46:9 0
*END

*D_NET *47 0.00182930874204
*CONN
*I _104_:RESET_B I
*I _043_:X O
*CAP
399 *47:1 0.0007335570307000001
400 *47:2 0.0007335570307000001
401 *47:3 0.00018109734031999995
402 _104_:RESET_B 0.00018109734031999995
403 _043_:X 0.0
*RES
413 *47:1 *47:2 16.69642857142857
414 *47:3 _104_:RESET_B 3.6964285714285707
415 _043_:X _043_:X 0
416 _043_:X *47:1 0
417 *47:3 *47:2 0
*END

*D_NET *48 0.003630686506680001
*CONN
*I _105_:RESET_B I
*I _042_:X O
*CAP
404 *48:1 0.0007368960426500001
405 *48:2 0.00011455556587000002
406 *48:3 9.135462381000001e-05
407 _042_:X 0.00070854082416
408 *48:4 0.0006884551382400001
409 *48:5 0.00029863744863999997
410 *48:6 0.00027855176272
411 *48:7 0.0007136951005900001
412 _105_:RESET_B 0.0
*RES
418 *48:1 *48:2 0.4107142857142857
419 *48:2 *48:3 1.9732142857142856
420 _042_:X _042_:X 0.30357142857142855
421 _042_:X *48:4 13.964285714285714
422 *48:5 *48:4 0.30357142857142855
423 *48:5 *48:6 5.75
424 *48:7 *48:1 16.241071428571427
425 _105_:RESET_B *48:3 0
426 _042_:X _042_:X 0
427 *48:6 *48:7 0
*END

*D_NET *49 0.005072127358600001
*CONN
*I _106_:RESET_B I
*I _045_:A I
*I _044_:A I
*I _043_:A I
*I _042_:A I
*I _041_:X O
*CAP
413 *49:1 0.0001427103728
414 *49:2 0.0008833639830400001
415 *49:3 0.0001427103728
416 _106_:RESET_B 2.008568592e-05
417 *49:4 0.00086327829712
418 *49:5 2.5170264480000005e-05
419 _041_:X 2.5170264480000005e-05
420 *49:6 0.00022243310784000002
421 *49:7 0.0009109800183200001
422 *49:8 0.00024891568132000004
423 _045_:A 2.5170264480000005e-05
424 *49:9 2.5170264480000005e-05
425 *49:10 0.00019595053436
426 _043_:A 2.008568592e-05