*SPEF "IEEE 1481-1998"
*DESIGN "gpio_control_block"
*DATE "Wed Nov 11 03:18:31 2020"
*VENDOR "AUC CSCE Department"
*PROGRAM "SPEF Extractor"
*VERSION "1.0"
*DESIGN_FLOW "PIN_CAP NONE"
*DIVIDER /
*DELIMITER :
*BUS_DELIMITER []
*T_UNIT 1.00000 NS
*C_UNIT 1.00000 PF
*R_UNIT 1.00000 OHM
*L_UNIT 1.00000 HENRY


*NAME_MAP
*0 mgmt_gpio_in
*1 mgmt_gpio_oeb
*2 mgmt_gpio_out
*3 pad_gpio_ana_en
*4 pad_gpio_ana_pol
*5 pad_gpio_ana_sel
*6 pad_gpio_dm[0]
*7 pad_gpio_dm[1]
*8 pad_gpio_dm[2]
*9 pad_gpio_holdover
*10 pad_gpio_ib_mode_sel
*11 pad_gpio_in
*12 pad_gpio_inenb
*13 pad_gpio_out
*14 pad_gpio_outenb
*15 pad_gpio_slow_sel
*16 pad_gpio_vtrip_sel
*17 resetn
*18 serial_clock
*19 serial_data_in
*20 serial_data_out
*21 user_gpio_in
*22 user_gpio_oeb
*23 user_gpio_out
*24 _000_
*25 _001_
*26 _002_
*27 _003_
*28 _004_
*29 _005_
*30 _006_
*31 _007_
*32 _008_
*33 _009_
*34 _010_
*35 _011_
*36 _012_
*37 _013_
*38 _014_
*39 _015_
*40 _016_
*41 _017_
*42 _018_
*43 _019_
*44 _020_
*45 _021_
*46 _022_
*47 _023_
*48 _024_
*49 _025_
*50 _026_
*51 _027_
*52 _028_
*53 _029_
*54 _030_
*55 _031_
*56 _032_
*57 _033_
*58 _034_
*59 _035_
*60 _036_
*61 _037_
*62 _038_
*63 gpio_logic1
*64 gpio_outenb
*65 load_data
*66 mgmt_ena
*67 shift_register\[0\]
*68 shift_register\[10\]
*69 shift_register\[11\]
*70 shift_register\[1\]
*71 shift_register\[2\]
*72 shift_register\[3\]
*73 shift_register\[4\]
*74 shift_register\[5\]
*75 shift_register\[6\]
*76 shift_register\[7\]
*77 shift_register\[8\]
*78 shift_register\[9\]
*79 clknet_0_serial_clock
*80 clknet_1_0_0_serial_clock
*81 clknet_1_1_0_serial_clock

*D_NET *0 0.00115695189292
*CONN
*P mgmt_gpio_in O
*I _080_:X O
*CAP
0 *0:1 0.00031778108654999997
1 *0:2 0.00031778108654999997
2 *0:3 0.00015756105751
3 *0:4 0.00015756105751
4 _080_:X 0.0001031338024
5 *0:5 0.0001031338024
*RES
0 *0:1 *0:2 1.1170333333333335
1 *0:3 *0:4 3.4910714285714284
2 _080_:X *0:5 2.0535714285714284
3 *0:3 *0:1 0
4 *0:5 *0:4 0
5 _080_:X _080_:X 0
*END

*D_NET *1 0.003005329975080001
*CONN
*P mgmt_gpio_oeb I
*I _073_:A I
*I _071_:A2 I
*CAP
6 _073_:A 5.034052896000001e-05
7 *1:1 0.00027673263817
8 *1:2 0.00046739691252999994
9 *1:3 0.00061341113805
10 *1:4 0.00061341113805
11 _071_:A2 2.5170264480000005e-05
12 *1:5 5.966225632000001e-05
13 *1:6 0.000371516408
14 *1:7 0.00033702441616
15 *1:8 0.00019066427435999997
*RES
6 _073_:A _073_:A 0.4107142857142857
7 *1:1 *1:2 6.223214285714285
8 *1:3 *1:4 2.198033333333333
9 _071_:A2 *1:5 0.4107142857142857
10 *1:6 *1:5 0.6071428571428571
11 *1:6 *1:7 6.982142857142857
12 *1:2 *1:8 4.249999999999999
13 _073_:A _073_:A 0
14 _073_:A *1:2 0
15 *1:1 *1:3 0
16 _071_:A2 _071_:A2 0
17 *1:7 *1:8 0
*END

*D_NET *2 0.0013411038272
*CONN
*P mgmt_gpio_out I
*I _074_:A I
*CAP
16 _074_:A 0.0001031338024
17 *2:1 0.0001031338024
18 *2:2 0.00017080234425000002
19 *2:3 0.00017080234425000002
20 *2:4 0.00039661576695000005
21 *2:5 0.00039661576695000005
*RES
18 _074_:A *2:1 2.0535714285714284
19 *2:2 *2:3 3.7946428571428568
20 *2:4 *2:5 1.4053000000000002
21 _074_:A _074_:A 0
22 *2:1 *2:2 0
23 *2:3 *2:4 0
*END

*D_NET *3 0.00252118656984
*CONN
*P pad_gpio_ana_en O
*I _092_:Q O
*CAP
22 *3:1 0.00065282847825
23 *3:2 0.00065282847825
24 *3:3 0.0006077648066700001
25 *3:4 0.0006077648066700001
26 _092_:Q 0.0
*RES
24 *3:1 *3:2 2.342166666666667
25 *3:3 *3:4 13.8125
26 *3:3 *3:2 0
27 _092_:Q _092_:Q 0
28 _092_:Q *3:4 0
*END

*D_NET *4 0.00329226597804
*CONN
*P pad_gpio_ana_pol O
*I _094_:Q O
*CAP
27 *4:1 0.0007907891689500001
28 *4:2 0.0007907891689500001
29 *4:3 2.3200942060000004e-05
30 *4:4 0.00040586387415
31 *4:5 0.00038266293209
32 *4:6 0.00041498795408
33 *4:7 0.00044947994592
34 _094_:Q 3.449199184e-05
*RES
29 *4:1 *4:2 2.8466333333333336
30 *4:3 *4:4 0.4107142857142857
31 *4:4 *4:5 8.651785714285714
32 *4:6 *4:7 8.625
33 *4:7 _094_:Q 0.6071428571428571
34 *4:3 *4:2 0
35 *4:6 *4:5 0
36 _094_:Q _094_:Q 0
*END

*D_NET *5 0.00224221769448
*CONN
*P pad_gpio_ana_sel O
*I _093_:Q O
*CAP
35 *5:1 0.00053457645765
36 *5:2 0.00053457645765
37 *5:3 0.00021052620446999998
38 *5:4 0.00021052620446999998
39 *5:5 0.00037600618512
40 _093_:Q 0.00037600618512
*RES
37 *5:1 *5:2 1.9097666666666666
38 *5:3 *5:4 4.705357142857142
39 *5:5 _093_:Q 7.803571428571428
40 *5:3 *5:2 0
41 *5:5 *5:4 0
42 _093_:Q _093_:Q 0
*END

*D_NET *6 0.007829566298679999
*CONN
*P pad_gpio_dm[0] O
*I _089_:Q O
*I _075_:A I
*CAP
41 *6:1 0.00063311980815
42 *6:2 0.00063311980815
43 *6:3 2.514819011e-05
44 *6:4 2.514819011e-05
45 *6:5 0.0006878603368000001
46 *6:6 0.0006878603368000001
47 *6:7 0.00127978879899
48 *6:8 0.00055151802829
49 *6:9 0.00125658785693
50 _075_:A 2.008568592e-05
51 *6:10 0.00018169214176000001
52 *6:11 0.00016160645584
53 *6:12 0.00102353095561
54 *6:13 0.0004952138693800001
55 _089_:Q 8.364291792e-05
56 *6:14 8.364291792e-05
*RES
43 *6:1 *6:2 2.2701000000000002
44 *6:3 *6:4 0.45535714285714285
45 *6:5 *6:6 14.375
46 *6:7 *6:8 0.4107142857142857
47 *6:9 *6:7 28.6875
48 _075_:A *6:10 0.30357142857142855
49 *6:11 *6:10 3.2857142857142856
50 *6:12 *6:13 11.232142857142856
51 _089_:Q *6:14 1.6428571428571428
52 *6:8 *6:12 11.991071428571427
53 *6:3 *6:2 0
54 *6:5 *6:4 0
55 *6:6 *6:9 0
56 _075_:A _075_:A 0
57 *6:11 *6:12 0
58 *6:14 *6:13 0
59 _089_:Q _089_:Q 0
*END

*D_NET *7 0.005971223950520001
*CONN
*P pad_gpio_dm[1] O
*I _090_:Q O
*I _073_:C I
*CAP
57 *7:1 0.00033702441616
58 *7:2 0.00033702441616
59 *7:3 9.135462381000001e-05
60 *7:4 9.135462381000001e-05
61 *7:5 0.00050659891875
62 *7:6 0.00043603310715000003
63 *7:7 0.0004376185734
64 *7:8 0.00036705276179999996
65 *7:9 0.00016220125728
66 _090_:Q 2.008568592e-05
67 *7:10 0.00014211557136
68 _073_:C 2.008568592e-05
69 *7:11 0.00033761921759999997
70 *7:12 0.00031753353168
71 *7:13 0.0011837607798600002
72 *7:14 0.0011837607798600002
73 *7:15 0.0
*RES
60 *7:1 *7:2 6.982142857142857
61 *7:3 *7:4 1.9732142857142856
62 *7:5 *7:6 1.5494333333333334
63 *7:7 *7:5 0.21306666666666668
64 *7:8 *7:7 1.2972
65 *7:9 _090_:Q 0.30357142857142855
66 *7:10 *7:9 2.875
67 _073_:C *7:11 0.30357142857142855
68 *7:12 *7:11 6.571428571428571
69 *7:13 *7:14 27.017857142857142
70 *7:2 *7:13 0
71 *7:1 *7:4 0
72 *7:3 *7:6 0
73 _090_:Q _090_:Q 0
74 *7:10 *7:14 0
75 _073_:C _073_:C 0
76 *7:12 *7:15 0
*END

*D_NET *8 0.00470996095896
*CONN
*P pad_gpio_dm[2] O
*I _091_:Q O
*I _072_:A I
*CAP
74 *8:1 0.00010372860384000001
75 *8:2 8.364291792e-05
76 *8:3 0.0004935462934399999
77 *8:4 0.00047346060751999995
78 *8:5 0.00011783719729000003
79 *8:6 0.00011783719729000003
80 *8:7 0.00063311980815
81 *8:8 0.00063311980815
82 _091_:Q 0.00020058822479999998
83 _072_:A 0.00020058822479999998
84 *8:9 0.00082624603788
85 *8:10 0.00082624603788
*RES
77 *8:1 *8:2 1.6428571428571428
78 *8:1 *8:3 0.30357142857142855
79 *8:4 *8:3 9.857142857142856
80 *8:5 *8:6 2.580357142857143
81 *8:7 *8:8 2.2701000000000002
82 _091_:Q _072_:A 4.107142857142857
83 *8:9 *8:10 18.82142857142857
84 *8:2 *8:9 0
85 *8:4 *8:5 0
86 *8:6 *8:8 0
87 _091_:Q _091_:Q 0
88 _072_:A _072_:A 0
89 _091_:Q *8:10 0
*END

*D_NET *9 0.00143692667484
*CONN
*P pad_gpio_holdover O
*I _083_:Q O
*CAP
86 *9:1 1.1906903370000003e-05
87 *9:2 1.1906903370000003e-05
88 *9:3 0.00033950367225
89 *9:4 0.00029807241645
90 *9:5 0.00040848401759999994
91 *9:6 0.00036705276179999996
92 _083_:Q 0.0
*RES
90 *9:1 *9:2 0.15178571428571427
91 *9:3 *9:4 1.0449666666666666
92 *9:3 *9:5 0.10653333333333334
93 *9:6 *9:5 1.2972
94 _083_:Q _083_:Q 0
95 _083_:Q *9:1 0
96 *9:2 *9:4 0
*END

*D_NET *10 0.0021299830376
*CONN
*P pad_gpio_ib_mode_sel O
*I _087_:Q O
*CAP
93 *10:1 0.00028997392491
94 *10:2 0.00028997392491
95 *10:3 0.00016160645584
96 _087_:Q 0.00016160645584
97 *10:4 0.00061341113805
98 *10:5 0.00061341113805
*RES
97 *10:1 *10:2 6.5267857142857135
98 *10:3 _087_:Q 3.2857142857142856
99 *10:4 *10:5 2.198033333333333
100 *10:1 *10:5 0
101 *10:3 *10:2 0
102 _087_:Q _087_:Q 0
*END

*D_NET *11 0.00508078296736
*CONN
*P pad_gpio_in I
*I _080_:B I
*I _077_:B I
*CAP
99 *11:1 0.00036705276179999996
100 *11:2 0.00040848401759999994
101 *11:3 0.00047746436295
102 *11:4 0.00025687070806
103 *11:5 0.00025687070806
104 *11:6 0.00062938768336
105 *11:7 0.0006935397168
106 *11:8 2.514819011e-05
107 *11:9 2.514819011e-05
108 *11:10 6.415203344e-05
109 *11:11 0.00043603310715000003
110 *11:12 0.0007203157439600001
111 *11:13 0.0007203157439600001
112 _080_:B 0.0
113 _077_:B 0.0
*RES
103 *11:1 *11:2 1.2972
104 *11:2 *11:3 0.10653333333333334
105 *11:4 *11:5 5.767857142857142
106 *11:6 *11:7 13.142857142857142
107 *11:8 *11:9 0.45535714285714285
108 *11:7 *11:10 1.232142857142857
109 *11:3 *11:11 1.5494333333333334
110 *11:12 *11:13 16.392857142857142
111 _080_:B _080_:B 0
112 _080_:B *11:12 0
113 _077_:B _077_:B 0
114 _077_:B *11:5 0
115 *11:7 *11:4 0
116 *11:6 *11:8 0
117 *11:9 *11:11 0
118 *11:10 *11:13 0
*END

*D_NET *12 0.00165687812004
*CONN
*P pad_gpio_inenb O
*I _086_:Q O
*CAP
114 *12:1 0.00017080234425000002
115 *12:2 0.00017080234425000002
116 *12:3 8.364291792e-05
117 _086_:Q 8.364291792e-05
118 *12:4 0.0005739937978499999
119 *12:5 0.0005739937978499999
*RES
119 *12:1 *12:2 3.7946428571428568
120 *12:3 _086_:Q 1.6428571428571428
121 *12:4 *12:5 2.0539
122 *12:2 *12:5 0
123 *12:3 *12:1 0
124 _086_:Q _086_:Q 0
*END

*D_NET *13 0.00236954429452
*CONN
*P pad_gpio_out O
*I _076_:X O
*CAP
120 *13:1 0.00050659891875
121 *13:2 0.0004376185734
122 *13:3 0.00036705276179999996
123 *13:4 2.3200942060000004e-05
124 *13:5 0.00024696843327
125 *13:6 0.00022376749121
126 *13:7 6.415203344e-05
127 _076_:X 6.415203344e-05
128 *13:8 0.00043603310715000003
*RES
125 *13:1 *13:2 0.21306666666666668
126 *13:3 *13:2 1.2972
127 *13:4 *13:5 0.4107142857142857
128 *13:6 *13:5 5.008928571428571
129 *13:7 _076_:X 1.232142857142857
130 *13:1 *13:8 1.5494333333333334
131 *13:4 *13:8 0
132 *13:7 *13:6 0
133 _076_:X _076_:X 0
*END

*D_NET *14 0.0033841948216000004
*CONN
*P pad_gpio_outenb O
*I _071_:X O
*CAP
129 *14:1 0.0008196253945100001
130 *14:2 0.0008196253945100001
131 *14:3 0.00025906087823999996
132 _071_:X 0.00025906087823999996
133 *14:4 0.00061341113805
134 *14:5 0.00061341113805
*RES
134 *14:1 *14:2 18.669642857142854
135 *14:3 _071_:X 5.339285714285714
136 *14:4 *14:5 2.198033333333333
137 *14:2 *14:5 0
138 *14:3 *14:1 0
139 _071_:X _071_:X 0
*END

*D_NET *15 0.0019481864283199997
*CONN
*P pad_gpio_slow_sel O
*I _084_:Q O
*CAP
135 *15:1 0.00031645649839
136 *15:2 0.00031645649839
137 *15:3 8.364291792e-05
138 _084_:Q 8.364291792e-05
139 *15:4 0.0005739937978499999
140 *15:5 0.0005739937978499999
*RES
140 *15:1 *15:2 7.133928571428571
141 *15:3 _084_:Q 1.6428571428571428
142 *15:4 *15:5 2.0539
143 *15:2 *15:5 0
144 *15:3 *15:1 0
145 _084_:Q _084_:Q 0
*END

*D_NET *16 0.00212394796764
*CONN
*P pad_gpio_vtrip_sel O
*I _085_:Q O
*CAP
141 *16:1 0.00065282847825
142 *16:2 0.00065282847825
143 *16:3 0.00040914550557
144 *16:4 0.00040914550557
145 _085_:Q 0.0
*RES
146 *16:1 *16:2 2.342166666666667
147 *16:3 *16:4 9.25892857142857
148 *16:4 *16:2 0
149 _085_:Q _085_:Q 0
150 _085_:Q *16:3 0
*END

*D_NET *17 0.0030881393861200003
*CONN
*P resetn I
*I _078_:A I
*I _039_:B I
*CAP
146 *17:1 0.0005150757994900001
147 *17:2 0.0005150757994900001
148 _039_:B 0.0003954970696
149 *17:3 0.00041558275552
150 _078_:A 2.008568592e-05
151 *17:4 0.00061341113805
152 *17:5 0.00061341113805
*RES
151 *17:1 *17:2 11.687499999999998
152 _039_:B *17:3 8.214285714285714
153 *17:3 _078_:A 0.30357142857142855
154 *17:4 *17:5 2.198033333333333
155 _078_:A _078_:A 0
156 _078_:A *17:2 0
157 *17:1 *17:4 0
158 _039_:B _039_:B 0
*END

*D_NET *18 0.005240956025519999
*CONN
*P serial_clock I
*I clkbuf_0_serial_clock:A I
*CAP
153 clkbuf_0_serial_clock:A 0.0005124423764800001
154 *18:1 0.0005124423764800001
155 *18:2 0.00145520715803
156 *18:3 0.00145520715803
157 *18:4 0.00065282847825
158 *18:5 0.00065282847825
*RES
159 clkbuf_0_serial_clock:A *18:1 10.678571428571429
160 *18:2 *18:3 33.24107142857142
161 *18:4 *18:5 2.342166666666667
162 *18:2 *18:4 0
163 *18:1 *18:3 0
164 clkbuf_0_serial_clock:A clkbuf_0_serial_clock:A 0
*END

*D_NET *19 0.00257397575272
*CONN
*P serial_data_in I
*I _095_:D I
*CAP
159 _095_:D 0.00022007910927999998
160 *19:1 0.00022007910927999998
161 *19:2 0.00019728491772999998
162 *19:3 0.00019728491772999998
163 *19:4 0.0008696238493500001
164 *19:5 0.0008696238493500001
*RES
165 _095_:D *19:1 4.517857142857142
166 *19:2 *19:3 4.4017857142857135
167 *19:4 *19:5 3.1349
168 *19:2 *19:4 0
169 *19:1 *19:3 0
170 _095_:D _095_:D 0
*END

*D_NET *20 0.007511923542200002
*CONN
*P serial_data_out O
*I _107_:Q O
*I _091_:D I
*CAP
165 *20:1 0.00023956999375999996
166 *20:2 0.00023956999375999996
167 *20:3 0.00013107848403
168 *20:4 0.00013107848403
169 *20:5 0.0007907891689500001
170 *20:6 0.0007907891689500001
171 *20:7 0.00016220125728
172 _107_:Q 2.008568592e-05
173 *20:8 0.00014211557136
174 *20:9 0.0013942869843300001
175 *20:10 0.0009448621343900001
176 *20:11 0.0007594841200300002
177 _091_:D 0.00027855176272
178 *20:12 0.00027855176272
179 *20:13 0.0005084551561200001
180 *20:14 0.0007004538138500002
*RES
171 *20:1 *20:2 4.928571428571428
172 *20:3 *20:4 2.883928571428571
173 *20:5 *20:6 2.8466333333333336
174 *20:7 _107_:Q 0.30357142857142855
175 *20:8 *20:7 2.875
176 *20:9 *20:10 20.187499999999996
177 *20:11 *20:10 1.232142857142857
178 _091_:D *20:12 5.75
179 *20:13 *20:9 11.535714285714285
180 *20:11 *20:14 15.9375
181 *20:2 *20:14 0
182 *20:1 *20:3 0
183 *20:4 *20:6 0
184 _107_:Q _107_:Q 0
185 *20:8 *20:9 0
186 _091_:D _091_:D 0
187 *20:12 *20:13 0
*END

*D_NET *21 0.0019740559617600004
*CONN
*P user_gpio_in O
*I gpio_in_buf:Z O
*CAP
181 *21:1 8.364291792e-05
182 gpio_in_buf:Z 8.364291792e-05
183 *21:2 0.00028997392491
184 *21:3 0.00028997392491
185 *21:4 0.00061341113805
186 *21:5 0.00061341113805
*RES
188 *21:1 gpio_in_buf:Z 1.6428571428571428
189 *21:2 *21:3 6.5267857142857135
190 *21:4 *21:5 2.198033333333333
191 gpio_in_buf:Z gpio_in_buf:Z 0
192 *21:1 *21:2 0
193 *21:3 *21:4 0
*END

*D_NET *22 0.004027628058000001
*CONN
*P user_gpio_oeb I
*I _071_:B1 I
*CAP
187 *22:1 0.0011638988497500002
188 *22:2 0.0011638988497500002
189 *22:3 0.00084991517925
190 *22:4 0.00084991517925
191 _071_:B1 0.0
*RES
194 *22:1 *22:2 26.562499999999996
195 *22:3 *22:4 3.0628333333333337
196 _071_:B1 _071_:B1 0
197 _071_:B1 *22:1 0
198 *22:2 *22:3 0
*END

*D_NET *23 0.00459730990784
*CONN
*P user_gpio_out I
*I _076_:B2 I
*CAP
192 *23:1 0.0008302065091499999
193 *23:2 0.0008302065091499999
194 *23:3 0.0014684484447700001
195 *23:4 0.0014684484447700001
196 _076_:B2 0.0
*RES
199 *23:1 *23:2 2.9907666666666666
200 *23:3 *23:4 33.544642857142854
201 *23:4 *23:1 0
202 _076_:B2 _076_:B2 0
203 _076_:B2 *23:3 0
*END

*D_NET *24 0.00043429369568000003
*CONN
*I gpio_in_buf:A I
*I _077_:Y O
*CAP
197 *24:1 0.00021714684784000001
198 *24:2 0.00021714684784000001
199 _077_:Y 0.0
200 gpio_in_buf:A 0.0
*RES
204 *24:1 *24:2 4.857142857142857
205 _077_:Y _077_:Y 0
206 _077_:Y *24:1 0
207 gpio_in_buf:A gpio_in_buf:A 0
208 gpio_in_buf:A *24:2 0
*END

*D_NET *25 0.00044119990812000007
*CONN
*I _082_:SET_B I
*I _069_:X O
*CAP
201 *25:1 9.797526718e-05
202 *25:2 9.797526718e-05
203 _082_:SET_B 0.00012262468688
204 *25:3 0.00012262468688
205 _069_:X 0.0
*RES
209 *25:1 *25:2 2.1249999999999996
210 _082_:SET_B *25:3 2.464285714285714
211 *25:3 *25:2 0
212 _069_:X _069_:X 0
213 _069_:X *25:1 0
*END

*D_NET *26 0.00035073717472
*CONN
*I _083_:RESET_B I
*I _068_:X O
*CAP
206 *26:1 6.415203344e-05
207 _068_:X 6.415203344e-05
208 *26:2 0.00011121655392000001
209 *26:3 0.00011121655392000001
210 _083_:RESET_B 0.0
*RES
214 *26:1 _068_:X 1.232142857142857
215 *26:2 *26:3 2.4285714285714284
216 _068_:X _068_:X 0
217 *26:1 *26:3 0
218 _083_:RESET_B *26:2 0
*END

*D_NET *27 0.00028527283228
*CONN
*I _084_:RESET_B I
*I _067_:X O
*CAP
211 *27:1 4.466114896e-05
212 _067_:X 4.466114896e-05
213 *27:2 9.797526718e-05
214 *27:3 9.797526718e-05
215 _084_:RESET_B 0.0
*RES
219 *27:1 _067_:X 0.8214285714285714
220 *27:2 *27:3 2.1249999999999996
221 _067_:X _067_:X 0
222 *27:1 *27:3 0
223 _084_:RESET_B *27:2 0
*END

*D_NET *28 0.00062954628752
*CONN
*I _085_:RESET_B I
*I _066_:X O
*CAP
216 *28:1 0.0002701119948
217 *28:2 0.0002701119948
218 *28:3 4.466114896e-05
219 _085_:RESET_B 4.466114896e-05
220 _066_:X 0.0
*RES
224 *28:1 *28:2 6.07142857142857
225 *28:3 _085_:RESET_B 0.8214285714285714
226 _066_:X _066_:X 0
227 _066_:X *28:1 0
228 *28:3 *28:2 0
*END

*D_NET *29 0.00028527283228
*CONN
*I _086_:RESET_B I
*I _065_:X O
*CAP
221 *29:1 4.466114896e-05
222 _065_:X 4.466114896e-05
223 *29:2 9.797526718e-05
224 *29:3 9.797526718e-05
225 _086_:RESET_B 0.0
*RES
229 *29:1 _065_:X 0.8214285714285714
230 *29:2 *29:3 2.1249999999999996
231 _065_:X _065_:X 0
232 *29:1 *29:3 0
233 _086_:RESET_B *29:2 0
*END

*D_NET *30 0.00016684334288000002
*CONN
*I _087_:RESET_B I
*I _063_:X O
*CAP
226 *30:1 2.5170264480000005e-05
227 _063_:X 2.5170264480000005e-05
228 *30:2 5.825140696e-05
229 *30:3 5.825140696e-05
230 _087_:RESET_B 0.0
*RES
234 *30:1 _063_:X 0.4107142857142857
235 *30:2 *30:3 1.2142857142857142
236 _063_:X _063_:X 0
237 *30:1 *30:2 0
238 _087_:RESET_B *30:3 0
*END

*D_NET *31 0.0004971334201200001
*CONN
*I _088_:SET_B I
*I _062_:X O
*CAP
231 _062_:X 4.466114896e-05
232 *31:1 4.466114896e-05
233 *31:2 0.0002039055611
234 *31:3 0.0002039055611
235 _088_:SET_B 0.0
*RES
239 _062_:X *31:1 0.8214285714285714
240 *31:2 *31:3 4.553571428571428
241 _062_:X _062_:X 0
242 *31:1 *31:2 0
243 _088_:SET_B *31:3 0
*END

*D_NET *32 0.0004078111222
*CONN
*I _089_:SET_B I
*I _061_:X O
*CAP
236 *32:1 0.0002039055611
237 *32:2 0.0002039055611
238 _061_:X 0.0
239 _089_:SET_B 0.0
*RES
244 *32:1 *32:2 4.553571428571428
245 _061_:X _061_:X 0
246 _061_:X *32:1 0
247 _089_:SET_B *32:2 0
*END

*D_NET *33 0.00083153229788
*CONN
*I _090_:RESET_B I
*I _060_:X O
*CAP
240 *33:1 0.00041576614894
241 *33:2 0.00041576614894
242 _060_:X 0.0
243 _090_:RESET_B 0.0
*RES
248 *33:1 *33:2 9.410714285714285
249 _060_:X _060_:X 0
250 _060_:X *33:1 0
251 _090_:RESET_B *33:2 0
*END

*D_NET *34 0.0004971334201200001
*CONN
*I _091_:RESET_B I
*I _059_:X O
*CAP
244 _059_:X 4.466114896e-05
245 *34:1 4.466114896e-05
246 *34:2 0.0002039055611
247 *34:3 0.0002039055611
248 _091_:RESET_B 0.0
*RES
252 _059_:X *34:1 0.8214285714285714
253 *34:2 *34:3 4.553571428571428
254 _059_:X _059_:X 0
255 *34:1 *34:3 0
256 _091_:RESET_B *34:2 0
*END

*D_NET *35 0.00020582511184
*CONN
*I _092_:RESET_B I
*I _057_:X O
*CAP
249 *35:1 5.825140696e-05
250 *35:2 5.825140696e-05
251 _092_:RESET_B 4.466114896e-05
252 *35:3 4.466114896e-05
253 _057_:X 0.0
*RES
257 *35:1 *35:2 1.2142857142857142
258 _092_:RESET_B *35:3 0.8214285714285714
259 _057_:X _057_:X 0
260 _057_:X *35:1 0
261 *35:3 *35:2 0
*END

*D_NET *36 0.0002448068808
*CONN
*I _093_:RESET_B I
*I _056_:X O
*CAP
254 _056_:X 6.415203344e-05
255 *36:1 6.415203344e-05
256 *36:2 5.825140696e-05
257 *36:3 5.825140696e-05
258 _093_:RESET_B 0.0
*RES
262 _056_:X *36:1 1.232142857142857
263 *36:2 *36:3 1.2142857142857142
264 _056_:X _056_:X 0
265 *36:1 *36:2 0
266 _093_:RESET_B *36:3 0
*END

*D_NET *37 0.0007593345369200001
*CONN
*I _094_:RESET_B I
*I _055_:X O
*CAP
259 _055_:X 2.5170264480000005e-05
260 *37:1 2.5170264480000005e-05
261 *37:2 0.00030983585502
262 *37:3 0.00030983585502
263 *37:4 4.466114896e-05
264 _094_:RESET_B 4.466114896e-05
*RES
267 _055_:X *37:1 0.4107142857142857
268 *37:2 *37:3 6.982142857142857
269 *37:4 _094_:RESET_B 0.8214285714285714
270 _055_:X _055_:X 0
271 *37:1 *37:2 0
272 *37:4 *37:3 0
*END

*D_NET *38 0.0002587902588
*CONN
*I _095_:RESET_B I
*I _054_:X O
*CAP
265 _054_:X 4.466114896e-05
266 *38:1 4.466114896e-05
267 *38:2 8.473398044000001e-05
268 *38:3 8.473398044000001e-05
269 _095_:RESET_B 0.0
*RES
273 _054_:X *38:1 0.8214285714285714
274 *38:2 *38:3 1.8214285714285714
275 _054_:X _054_:X 0
276 *38:1 *38:2 0
277 _095_:RESET_B *38:3 0
*END

*D_NET *39 0.00019595053436
*CONN
*I _096_:RESET_B I
*I _053_:X O
*CAP
270 *39:1 9.797526718e-05
271 *39:2 9.797526718e-05
272 _053_:X 0.0
273 _096_:RESET_B 0.0
*RES
278 *39:1 *39:2 2.1249999999999996
279 _053_:X _053_:X 0
280 _053_:X *39:1 0
281 _096_:RESET_B *39:2 0
*END

*D_NET *40 0.00020582511184
*CONN
*I _097_:RESET_B I
*I _051_:X O
*CAP
274 *40:1 5.825140696e-05
275 *40:2 5.825140696e-05
276 *40:3 4.466114896e-05
277 _097_:RESET_B 4.466114896e-05
278 _051_:X 0.0
*RES
282 *40:1 *40:2 1.2142857142857142
283 *40:3 _097_:RESET_B 0.8214285714285714
284 _051_:X _051_:X 0
285 _051_:X *40:1 0
286 *40:3 *40:2 0
*END

*D_NET *41 0.00062954628752
*CONN
*I _098_:RESET_B I
*I _050_:X O
*CAP
279 *41:1 0.0002701119948
280 *41:2 0.0002701119948
281 *41:3 4.466114896e-05
282 _098_:RESET_B 4.466114896e-05
283 _050_:X 0.0
*RES
287 *41:1 *41:2 6.07142857142857
288 *41:3 _098_:RESET_B 0.8214285714285714
289 _050_:X _050_:X 0
290 _050_:X *41:1 0
291 *41:3 *41:2 0
*END

*D_NET *42 0.0015549521768
*CONN
*I _099_:RESET_B I
*I _049_:X O
*CAP
284 _049_:X 8.364291792e-05
285 *42:1 8.364291792e-05
286 *42:2 0.00069383317048
287 *42:3 0.00069383317048
288 _099_:RESET_B 0.0
*RES
292 _049_:X *42:1 1.6428571428571428
293 *42:2 *42:3 15.785714285714285
294 _049_:X _049_:X 0
295 *42:1 *42:2 0
296 _099_:RESET_B *42:3 0
*END

*D_NET *43 0.00028527283228
*CONN
*I _100_:RESET_B I
*I _048_:X O
*CAP
289 *43:1 4.466114896e-05
290 _048_:X 4.466114896e-05
291 *43:2 9.797526718e-05
292 *43:3 9.797526718e-05
293 _100_:RESET_B 0.0
*RES
297 *43:1 _048_:X 0.8214285714285714
298 *43:2 *43:3 2.1249999999999996
299 _048_:X _048_:X 0
300 *43:1 *43:3 0
301 _100_:RESET_B *43:2 0
*END

*D_NET *44 0.00066852805648
*CONN
*I _101_:RESET_B I
*I _047_:X O
*CAP
294 _047_:X 6.415203344e-05
295 *44:1 6.415203344e-05
296 *44:2 0.0002701119948
297 *44:3 0.0002701119948
298 _101_:RESET_B 0.0
*RES
302 _047_:X *44:1 1.232142857142857
303 *44:2 *44:3 6.07142857142857
304 _047_:X _047_:X 0
305 *44:1 *44:2 0
306 _101_:RESET_B *44:3 0
*END

*D_NET *45 0.00070750982544
*CONN
*I _102_:RESET_B I
*I _045_:X O
*CAP
299 *45:1 8.364291792e-05
300 _102_:RESET_B 8.364291792e-05
301 *45:2 0.0002701119948
302 *45:3 0.0002701119948
303 _045_:X 0.0
*RES
307 *45:1 _102_:RESET_B 1.6428571428571428
308 *45:2 *45:3 6.07142857142857
309 *45:1 *45:2 0
310 _045_:X _045_:X 0
311 _045_:X *45:3 0
*END

*D_NET *46 0.0002334972882
*CONN
*I _103_:RESET_B I
*I _044_:X O
*CAP
304 *46:1 7.149269369999999e-05
305 *46:2 7.149269369999999e-05
306 *46:3 2.008568592e-05
307 *46:4 4.5255950400000005e-05
308 _103_:RESET_B 2.5170264480000005e-05
309 _044_:X 0.0
*RES
312 *46:1 *46:2 1.5178571428571426
313 *46:3 *46:4 0.30357142857142855
314 _103_:RESET_B *46:4 0.4107142857142857
315 _044_:X _044_:X 0
316 _044_:X *46:1 0
317 *46:3 *46:2 0
*END

*D_NET *47 0.00029777202776
*CONN
*I _104_:RESET_B I
*I _043_:X O
*CAP
310 *47:1 8.473398044000001e-05
311 *47:2 8.473398044000001e-05
312 _104_:RESET_B 6.415203344e-05
313 *47:3 6.415203344e-05
314 _043_:X 0.0
*RES
318 *47:1 *47:2 1.8214285714285714
319 _104_:RESET_B *47:3 1.232142857142857
320 _043_:X _043_:X 0
321 _043_:X *47:2 0
322 *47:3 *47:1 0
*END

*D_NET *48 0.00028378864976
*CONN
*I _105_:RESET_B I
*I _042_:X O
*CAP
315 *48:1 5.825140696e-05
316 *48:2 5.825140696e-05
317 *48:3 8.364291792e-05
318 _105_:RESET_B 8.364291792e-05
319 _042_:X 0.0
*RES
323 *48:1 *48:2 1.2142857142857142
324 *48:3 _105_:RESET_B 1.6428571428571428
325 _042_:X _042_:X 0
326 _042_:X *48:2 0
327 *48:3 *48:1 0
*END

*D_NET *49 0.006630771886360001
*CONN
*I _106_:RESET_B I
*I _045_:A I
*I _044_:A I
*I _043_:A I
*I _042_:A I
*I _041_:X O
*CAP
320 _041_:X 0.00024075959664
321 *49:1 0.00020058822479999998
322 _045_:A 8.364291792e-05
323 *49:2 8.364291792e-05
324 *49:3 0.00041576614894
325 *49:4 0.0018842145937100002
326 *49:5 6.159041891e-05
327 *49:6 0.00046739691253000005
328 *49:7 0.0014916493868300002
329 _042_:A 6.415203344e-05
330 *49:8 0.00024524937375999996
331 *49:9 0.0004290074356800001
332 _044_:A 0.00018109734031999995
333 _043_:A 3.449199184e-05
334 *49:10 0.00039100729248
335 *49:11 0.00035651530064
336 _106_:RESET_B 0.0
337 *49:12 0.0
*RES
328 _041_:X _041_:X 0.30357142857142855
329 *49:1 _041_:X 4.107142857142857
330 _045_:A *49:2 1.6428571428571428
331 *49:3 *49:4 9.410714285714285
332 *49:5 *49:6 0.7589285714285713
333 *49:5 *49:7 0.4107142857142857
334 _042_:A *49:8 1.232142857142857
335 *49:6 *49:9 9.714285714285714
336 *49:8 _044_:A 3.6964285714285707
337 _043_:A *49:10 0.6071428571428571
338 *49:10 *49:11 7.3928571428571415
339 *49:4 *49:7 33.544642857142854
340 _041_:X _041_:X 0
341 *49:1 *49:4 0
342 _045_:A _045_:A 0
343 *49:2 *49:3 0
344 _106_:RESET_B *49:6 0
345 _042_:A _042_:A 0
346 *49:8 *49:9 0
347 _044_:A _044_:A 0
348 _043_:A _043_:A 0
349 *49:11 *49:12 0
*END

*D_NET *50 0.00213087195088
*CONN
*I _107_:RESET_B I
*I _081_:X O
*CAP
338 _081_:X 4.466114896e-05
339 *50:1 4.466114896e-05
340 *50:2 0.00048197258264000005
341 *50:3 0.00048197258264000005
342 *50:4 0.00022007910927999998
343 *50:5 0.0002401647952
344 *50:6 0.00029863744863999997
345 *50:7 0.00029863744863999997
346 _107_:RESET_B 2.008568592e-05
*RES
350 _081_:X *50:1 0.8214285714285714
351 *50:2 *50:3 10.928571428571427
352 *50:4 *50:5 4.517857142857142
353 *50:5 *50:6 0.30357142857142855
354 *50:6 *50:7 5.75
355 *50:7 _107_:RESET_B 0.30357142857142855
356 _081_:X _081_:X 0
357 *50:1 *50:2 0
358 *50:4 *50:3 0
*END

*D_NET *51 0.0032858641466000003
*CONN
*I _064_:A I
*I _040_:A I
*I _039_:X O
*CAP
347 *51:1 8.473398044000001e-05
348 *51:2 8.473398044000001e-05
349 *51:3 0.00089245247158
350 *51:4 0.00089245247158
351 *51:5 0.00065879509664
352 _064_:A 6.279934704e-05
353 *51:6 0.00060989679888
354 _039_:X 0.0
355 _040_:A 0.0
356 *51:7 0.0
*RES
359 *51:1 *51:2 1.8214285714285714
360 *51:3 *51:4 20.33928571428571
361 *51:5 _064_:A 0.9107142857142857
362 _064_:A _064_:A 0.02678571428571428
363 *51:6 *51:5 12.732142857142856
364 _039_:X _039_:X 0
365 _039_:X *51:3 0
366 _040_:A _040_:A 0
367 _040_:A *51:1 0
368 *51:6 *51:2 0
369 *51:7 *51:4 0
370 _064_:A _064_:A 0
*END

*D_NET *52 0.00431555365756
*CONN
*I _081_:A I
*I _058_:A I
*I _052_:A I
*I _046_:A I
*I _041_:A I
*I _040_:X O
*CAP
357 _046_:A 2.5170264480000005e-05
358 *52:1 2.5170264480000005e-05
359 *52:2 8.364291792e-05
360 _052_:A 0.00011813490976
361 *52:3 0.0003363184285000001
362 *52:4 0.00085801487136
363 *52:5 0.00031304375456
364 _040_:X 0.00027855176272
365 *52:6 0.00027855176272
366 _041_:A 0.00027855176272
367 *52:7 0.00019066427435999997
368 *52:8 0.00019066427435999997
369 _081_:A 4.466114896e-05
370 *52:9 4.466114896e-05
371 *52:10 0.0006461542835199999
372 *52:11 0.00012445784066000002
373 *52:12 0.00023956999375999996
374 _058_:A 0.00023956999375999996
375 *52:13 0.0
*RES
371 _046_:A *52:1 0.4107142857142857
372 *52:2 _052_:A 1.6428571428571428
373 *52:3 *52:4 7.5892857142857135
374 *52:5 _040_:X 5.75
375 _052_:A *52:5 0.6071428571428571
376 *52:6 _041_:A 5.75
377 *52:7 *52:8 4.249999999999999
378 _081_:A *52:9 0.8214285714285714
379 *52:10 *52:11 2.7321428571428568
380 *52:12 _058_:A 4.928571428571428
381 *52:4 *52:10 11.839285714285714
382 _046_:A _046_:A 0
383 *52:1 *52:4 0
384 _052_:A _052_:A 0
385 *52:2 *52:3 0
386 _040_:X _040_:X 0
387 _041_:A _041_:A 0
388 *52:6 *52:8 0
389 *52:13 *52:7 0
390 _081_:A _081_:A 0
391 *52:9 *52:10 0
392 *52:12 *52:11 0
393 _058_:A _058_:A 0
*END

*D_NET *53 0.0037950031168
*CONN
*I _051_:A I
*I _050_:A I
*I _049_:A I
*I _048_:A I
*I _047_:A I
*I _046_:X O
*CAP
376 *53:1 4.466114896e-05
377 _048_:A 4.466114896e-05
378 *53:2 0.00021714684784000001
379 *53:3 0.00021714684784000001
380 *53:4 6.415203344e-05
381 _047_:A 6.415203344e-05
382 *53:5 0.00018169214176000001
383 _051_:A 2.008568592e-05
384 *53:6 0.00016160645584
385 *53:7 8.364291792e-05
386 _046_:X 8.364291792e-05
387 *53:8 0.00019066427435999997
388 *53:9 0.00023567439457999997
389 _050_:A 0.00020058822479999998
390 *53:10 0.00020058822479999998
391 *53:11 4.501012022000001e-05
392 *53:12 2.5170264480000005e-05
393 _049_:A 2.5170264480000005e-05
394 *53:13 0.0004290074356800001
395 *53:14 0.0004290074356800001
396 *53:15 0.00041576614894
397 *53:16 0.00041576614894
398 *53:17 0.0
399 *53:18 0.0
*RES
394 *53:1 _048_:A 0.8214285714285714
395 *53:2 *53:3 4.857142857142857
396 *53:4 _047_:A 1.232142857142857
397 *53:5 _051_:A 0.30357142857142855
398 *53:6 *53:5 3.2857142857142856
399 *53:7 _046_:X 1.6428571428571428
400 *53:8 *53:9 4.249999999999999
401 _050_:A *53:10 4.107142857142857
402 *53:9 *53:11 0.9107142857142857
403 *53:12 _049_:A 0.4107142857142857
404 *53:13 *53:14 9.714285714285714
405 *53:15 *53:16 9.410714285714285
406 _048_:A _048_:A 0
407 *53:1 *53:3 0
408 *53:4 *53:2 0
409 _047_:A _047_:A 0
410 _048_:A *53:15 0
411 _051_:A _051_:A 0
412 *53:6 *53:16 0
413 _046_:X _046_:X 0
414 *53:7 *53:9 0
415 *53:17 *53:8 0
416 _050_:A _050_:A 0
417 *53:10 *53:11 0
418 _049_:A _049_:A 0
419 *53:12 *53:14 0
420 *53:18 *53:13 0
*END

*D_NET *54 0.004990607255520001
*CONN
*I _057_:A I
*I _056_:A I
*I _055_:A I
*I _054_:A I
*I _053_:A I
*I _052_:X O
*CAP
400 _056_:A 2.5170264480000005e-05
401 *54:1 2.5170264480000005e-05
402 *54:2 0.00046739691253000005
403 *54:3 0.00029136568881000006
404 *54:4 0.0005032262766500001
405 _057_:A 2.5170264480000005e-05
406 *54:5 2.5170264480000005e-05
407 *54:6 0.00034160468850000003
408 *54:7 0.0002980426472
409 _055_:A 0.0002980426472
410 *54:8 0.00012445784066000002
411 *54:9 8.364291792e-05
412 _052_:X 0.0005582931283200001
413 _054_:A 2.008568592e-05
414 *54:10 0.0004935462934399999
415 *54:11 0.00047346060751999995
416 *54:12 0.00045456452448
417 _053_:A 2.008568592e-05
418 *54:13 0.0004621106525300001
419 *54:14 0.0
*RES
421 _056_:A *54:1 0.4107142857142857
422 *54:2 *54:3 5.616071428571428
423 *54:3 *54:4 0.8214285714285714
424 _057_:A *54:5 0.4107142857142857
425 *54:6 *54:2 4.857142857142857
426 *54:7 _055_:A 6.160714285714286
427 *54:8 *54:6 2.7321428571428568
428 *54:9 _052_:X 1.6428571428571428
429 _054_:A *54:10 0.30357142857142855
430 *54:11 *54:10 9.857142857142856
431 *54:12 _053_:A 0.30357142857142855
432 _052_:X *54:12 9.035714285714285