*SPEF "IEEE 1481-1998"
*DESIGN "user_id_programming"
*DATE "Wed Nov 11 03:15:53 2020"
*VENDOR "AUC CSCE Department"
*PROGRAM "SPEF Extractor"
*VERSION "1.0"
*DESIGN_FLOW "PIN_CAP NONE"
*DIVIDER /
*DELIMITER :
*BUS_DELIMITER []
*T_UNIT 1.00000 NS
*C_UNIT 1.00000 PF
*R_UNIT 1.00000 OHM
*L_UNIT 1.00000 HENRY


*NAME_MAP
*0 mask_rev[0]
*1 mask_rev[10]
*2 mask_rev[11]
*3 mask_rev[12]
*4 mask_rev[13]
*5 mask_rev[14]
*6 mask_rev[15]
*7 mask_rev[16]
*8 mask_rev[17]
*9 mask_rev[18]
*10 mask_rev[19]
*11 mask_rev[1]
*12 mask_rev[20]
*13 mask_rev[21]
*14 mask_rev[22]
*15 mask_rev[23]
*16 mask_rev[24]
*17 mask_rev[25]
*18 mask_rev[26]
*19 mask_rev[27]
*20 mask_rev[28]
*21 mask_rev[29]
*22 mask_rev[2]
*23 mask_rev[30]
*24 mask_rev[31]
*25 mask_rev[3]
*26 mask_rev[4]
*27 mask_rev[5]
*28 mask_rev[6]
*29 mask_rev[7]
*30 mask_rev[8]
*31 mask_rev[9]
*32 vdd1v8
*33 vss
*34 user_proj_id_high\[0\]
*35 user_proj_id_high\[10\]
*36 user_proj_id_high\[11\]
*37 user_proj_id_high\[12\]
*38 user_proj_id_high\[13\]
*39 user_proj_id_high\[14\]
*40 user_proj_id_high\[15\]
*41 user_proj_id_high\[16\]
*42 user_proj_id_high\[17\]
*43 user_proj_id_high\[18\]
*44 user_proj_id_high\[19\]
*45 user_proj_id_high\[1\]
*46 user_proj_id_high\[20\]
*47 user_proj_id_high\[21\]
*48 user_proj_id_high\[22\]
*49 user_proj_id_high\[23\]
*50 user_proj_id_high\[24\]
*51 user_proj_id_high\[25\]
*52 user_proj_id_high\[26\]
*53 user_proj_id_high\[27\]
*54 user_proj_id_high\[28\]
*55 user_proj_id_high\[29\]
*56 user_proj_id_high\[2\]
*57 user_proj_id_high\[30\]
*58 user_proj_id_high\[31\]
*59 user_proj_id_high\[3\]
*60 user_proj_id_high\[4\]
*61 user_proj_id_high\[5\]
*62 user_proj_id_high\[6\]
*63 user_proj_id_high\[7\]
*64 user_proj_id_high\[8\]
*65 user_proj_id_high\[9\]

*D_NET *0 0.0018330191983400002
*CONN
*P mask_rev[0] O
*I mask_rev_value\[0\]:LO O
*CAP
0 mask_rev_value\[0\]:LO 8.364291792e-05
1 *0:1 8.364291792e-05
2 *0:2 0.0008328666812500001
3 *0:3 0.0008328666812500001
*RES
0 mask_rev_value\[0\]:LO *0:1 1.6428571428571428
1 *0:2 *0:3 18.973214285714285
2 mask_rev_value\[0\]:LO mask_rev_value\[0\]:LO 0
3 *0:1 *0:2 0
*END

*D_NET *1 0.00293322818966
*CONN
*P mask_rev[10] O
*I mask_rev_value\[10\]:LO O
*CAP
4 *1:1 0.00011121655392000001
5 *1:2 0.00017024686010000002
6 *1:3 0.00070651897307
7 mask_rev_value\[10\]:LO 0.0006488785678399999
8 *1:4 0.0006488785678399999
9 *1:5 0.0006474886668899999
*RES
4 *1:1 *1:2 2.4285714285714284
5 *1:2 *1:3 1.232142857142857
6 mask_rev_value\[10\]:LO *1:4 13.553571428571427
7 *1:3 *1:5 14.723214285714283
8 mask_rev_value\[10\]:LO mask_rev_value\[10\]:LO 0
9 *1:4 *1:5 0
*END

*D_NET *2 0.00229442120282
*CONN
*P mask_rev[11] O
*I mask_rev_value\[11\]:LO O
*CAP
10 *2:1 0.00063424738015
11 *2:2 0.00063424738015
12 *2:3 9.797526718e-05
13 *2:4 9.797526718e-05
14 *2:5 0.00041498795408
15 *2:6 0.00041498795408
16 mask_rev_value\[11\]:LO 0.0
*RES
10 *2:1 *2:2 14.419642857142854
11 *2:3 *2:4 2.1249999999999996
12 *2:5 *2:6 8.625
13 *2:5 *2:2 0
14 *2:6 *2:3 0
15 mask_rev_value\[11\]:LO mask_rev_value\[11\]:LO 0
16 mask_rev_value\[11\]:LO *2:4 0
*END

*D_NET *3 0.0030375527647400003
*CONN
*P mask_rev[12] O
*I mask_rev_value\[12\]:LO O
*CAP
17 *3:1 0.00062100609341
18 *3:2 0.00062100609341
19 *3:3 0.00089777028896
20 mask_rev_value\[12\]:LO 3.449199184e-05
21 *3:4 0.00086327829712
*RES
17 *3:1 *3:2 14.116071428571427
18 *3:3 mask_rev_value\[12\]:LO 0.6071428571428571
19 *3:4 *3:3 18.07142857142857
20 *3:4 *3:2 0
21 mask_rev_value\[12\]:LO mask_rev_value\[12\]:LO 0
*END

*D_NET *4 0.00203003796098
*CONN
*P mask_rev[13] O
*I mask_rev_value\[13\]:LO O
*CAP
22 mask_rev_value\[13\]:LO 0.00047346060751999995
23 *4:1 0.00047346060751999995
24 *4:2 0.0005415583729700001
25 *4:3 0.0005415583729700001
*RES
22 mask_rev_value\[13\]:LO *4:1 9.857142857142856
23 *4:2 *4:3 12.294642857142856
24 mask_rev_value\[13\]:LO mask_rev_value\[13\]:LO 0
25 *4:1 *4:2 0
*END

*D_NET *5 0.00257812535614
*CONN
*P mask_rev[14] O
*I mask_rev_value\[14\]:LO O
*CAP
26 mask_rev_value\[14\]:LO 0.00033702441616
27 *5:1 0.00033702441616
28 *5:2 0.0009520382619100001
29 *5:3 0.0009520382619100001
*RES
26 mask_rev_value\[14\]:LO *5:1 6.982142857142857
27 *5:2 *5:3 21.70535714285714
28 *5:1 *5:3 0
29 mask_rev_value\[14\]:LO mask_rev_value\[14\]:LO 0
*END

*D_NET *6 0.00227157179784
*CONN
*P mask_rev[15] O
*I mask_rev_value\[15\]:LO O
*CAP
30 *6:1 0.00073166315865
31 *6:2 0.00073166315865
32 mask_rev_value\[15\]:LO 0.00022007910927999998
33 *6:3 0.00022007910927999998
34 *6:4 0.00018404363099
35 *6:5 0.00018404363099
*RES
30 *6:1 *6:2 2.6304333333333334
31 mask_rev_value\[15\]:LO *6:3 4.517857142857142
32 *6:4 *6:5 4.098214285714286
33 mask_rev_value\[15\]:LO mask_rev_value\[15\]:LO 0
34 *6:4 *6:1 0
35 *6:3 *6:5 0
*END

*D_NET *7 0.0031892357181
*CONN
*P mask_rev[16] O
*I mask_rev_value\[16\]:LO O
*CAP
36 *7:1 0.0006474886668899999
37 *7:2 0.0006474886668899999
38 *7:3 0.0004290074356800001
39 *7:4 0.0004290074356800001
40 mask_rev_value\[16\]:LO 6.415203344e-05
41 *7:5 6.415203344e-05
42 *7:6 0.00045396972304
43 *7:7 0.00045396972304
*RES
36 *7:1 *7:2 14.723214285714283
37 *7:3 *7:4 9.714285714285714
38 mask_rev_value\[16\]:LO *7:5 1.232142857142857
39 *7:6 *7:7 9.446428571428571
40 *7:6 *7:2 0
41 *7:7 *7:3 0
42 *7:5 *7:4 0
43 mask_rev_value\[16\]:LO mask_rev_value\[16\]:LO 0
*END

*D_NET *8 0.00388056535894
*CONN
*P mask_rev[17] O
*I mask_rev_value\[17\]:LO O
*CAP
44 *8:1 0.00039590421883000006
45 *8:2 0.00045493452501000004
46 *8:3 0.00040859002142
47 *8:4 0.00034955971524000003
48 mask_rev_value\[17\]:LO 0.00012262468688
49 *8:5 0.00012262468688
50 *8:6 0.00057091502992
51 *8:7 0.00057091502992
52 *8:8 0.00044224872242
53 *8:9 0.00044224872242
*RES
44 *8:1 *8:2 8.95535714285714
45 *8:3 *8:2 1.232142857142857
46 *8:3 *8:4 7.892857142857142
47 mask_rev_value\[17\]:LO *8:5 2.464285714285714
48 *8:6 *8:7 11.910714285714285
49 *8:8 *8:9 10.017857142857142
50 *8:6 *8:1 0
51 mask_rev_value\[17\]:LO mask_rev_value\[17\]:LO 0
52 *8:5 *8:8 0
53 *8:7 *8:9 0
*END

*D_NET *9 0.00414327743568
*CONN
*P mask_rev[18] O
*I mask_rev_value\[18\]:LO O
*CAP
54 *9:1 1.1906903370000003e-05
55 *9:2 1.1906903370000003e-05
56 *9:3 0.00041498795408
57 *9:4 0.00041498795408
58 *9:5 0.00063311980815
59 *9:6 0.00063311980815
60 *9:7 0.0010116240522400001
61 *9:8 0.0010116240522400001
62 mask_rev_value\[18\]:LO 0.0
*RES
54 *9:1 *9:2 0.15178571428571427
55 *9:3 *9:4 8.625
56 *9:5 *9:6 2.2701000000000002
57 *9:7 *9:8 23.07142857142857
58 mask_rev_value\[18\]:LO mask_rev_value\[18\]:LO 0
59 mask_rev_value\[18\]:LO *9:7 0
60 *9:2 *9:6 0
61 *9:3 *9:1 0
62 *9:4 *9:8 0
*END

*D_NET *10 0.00255614081254
*CONN
*P mask_rev[19] O
*I mask_rev_value\[19\]:LO O
*CAP
63 *10:1 9.135462381000001e-05
64 *10:2 0.00011455556587000002
65 *10:3 0.00066406896558
66 *10:4 0.0007178130117600001
67 *10:5 0.00040002213
68 *10:6 0.00032307714176
69 mask_rev_value\[19\]:LO 0.00012262468688
70 *10:7 0.00012262468688
*RES
63 *10:1 *10:2 1.9732142857142856
64 *10:2 *10:3 0.4107142857142857
65 *10:3 *10:4 14.571428571428571
66 *10:4 *10:5 1.6428571428571428
67 *10:5 *10:6 7.285714285714286
68 mask_rev_value\[19\]:LO *10:7 2.464285714285714
69 mask_rev_value\[19\]:LO mask_rev_value\[19\]:LO 0
70 *10:7 *10:1 0
*END

*D_NET *11 0.0012642857357199999
*CONN
*P mask_rev[1] O
*I mask_rev_value\[1\]:LO O
*CAP
71 *11:1 0.00017982039585
72 *11:2 0.00017982039585
73 *11:3 0.00032969778513
74 *11:4 0.00032969778513
75 *11:5 0.00012262468688
76 mask_rev_value\[1\]:LO 0.00012262468688
*RES
71 *11:1 *11:2 0.6125666666666667
72 *11:3 *11:4 7.437499999999999
73 *11:5 mask_rev_value\[1\]:LO 2.464285714285714
74 *11:3 *11:2 0
75 *11:5 *11:4 0
76 mask_rev_value\[1\]:LO mask_rev_value\[1\]:LO 0
*END

*D_NET *12 0.0023895657159999995
*CONN
*P mask_rev[20] O
*I mask_rev_value\[20\]:LO O
*CAP
77 mask_rev_value\[20\]:LO 0.00025906087823999996
78 *12:1 0.00025906087823999996
79 *12:2 0.0007119544885499999
80 *12:3 0.0007119544885499999
81 *12:4 0.00022376749121
82 *12:5 0.00022376749121
*RES
77 mask_rev_value\[20\]:LO *12:1 5.339285714285714
78 *12:2 *12:3 2.5583666666666667
79 *12:4 *12:5 5.008928571428571
80 mask_rev_value\[20\]:LO mask_rev_value\[20\]:LO 0
81 *12:1 *12:4 0
82 *12:5 *12:2 0
*END

*D_NET *13 0.00301571348424
*CONN
*P mask_rev[21] O
*I mask_rev_value\[21\]:LO O
*CAP
83 *13:1 0.00051486778755
84 *13:2 0.00051486778755
85 mask_rev_value\[21\]:LO 0.00023956999375999996
86 *13:3 0.00023956999375999996
87 *13:4 0.0007534189608100001
88 *13:5 0.0007534189608100001
*RES
83 *13:1 *13:2 1.8377
84 mask_rev_value\[21\]:LO *13:3 4.928571428571428
85 *13:4 *13:5 17.15178571428571
86 *13:4 *13:1 0
87 *13:3 *13:5 0
88 mask_rev_value\[21\]:LO mask_rev_value\[21\]:LO 0
*END

*D_NET *14 0.0019449761623600002
*CONN
*P mask_rev[22] O
*I mask_rev_value\[22\]:LO O
*CAP
89 *14:1 0.00016011172575
90 *14:2 0.00016011172575
91 *14:3 0.00047535193927000004
92 *14:4 0.00047535193927000004
93 *14:5 0.00033702441616
94 mask_rev_value\[22\]:LO 0.00033702441616
*RES
89 *14:1 *14:2 0.5405000000000001
90 *14:3 *14:4 10.776785714285714
91 *14:5 mask_rev_value\[22\]:LO 6.982142857142857
92 *14:3 *14:2 0
93 *14:5 *14:4 0
94 mask_rev_value\[22\]:LO mask_rev_value\[22\]:LO 0
*END

*D_NET *15 0.00117329589618
*CONN
*P mask_rev[23] O
*I mask_rev_value\[23\]:LO O
*CAP
95 *15:1 0.0001376991274
96 *15:2 0.00017881475152
97 *15:3 0.00042377855621
98 mask_rev_value\[23\]:LO 2.5170264480000005e-05
99 *15:4 2.5170264480000005e-05
100 *15:5 0.00038266293209
*RES
95 *15:1 *15:2 3.035714285714285
96 *15:3 *15:2 0.8214285714285714
97 mask_rev_value\[23\]:LO *15:4 0.4107142857142857
98 *15:3 *15:5 8.651785714285714
99 *15:4 *15:5 0
100 mask_rev_value\[23\]:LO mask_rev_value\[23\]:LO 0
*END

*D_NET *16 0.00275415498498
*CONN
*P mask_rev[24] O
*I mask_rev_value\[24\]:LO O
*CAP
101 mask_rev_value\[24\]:LO 0.0006878603368000001
102 *16:1 0.0006878603368000001
103 *16:2 0.00013107848403
104 *16:3 0.00015427942608999998
105 *16:4 0.00055813867166
106 *16:5 0.0005349377296
*RES
101 mask_rev_value\[24\]:LO *16:1 14.375
102 *16:2 *16:3 2.883928571428571
103 *16:3 *16:4 0.4107142857142857
104 *16:4 *16:5 12.14285714285714
105 mask_rev_value\[24\]:LO mask_rev_value\[24\]:LO 0
106 *16:1 *16:2 0
*END

*D_NET *17 0.0006741498666800001
*CONN
*P mask_rev[25] O
*I mask_rev_value\[25\]:LO O
*CAP
107 *17:1 0.00021923773604999998
108 *17:2 0.00021923773604999998
109 *17:3 0.00011783719729000003
110 *17:4 0.00011783719729000003
111 mask_rev_value\[25\]:LO 0.0
*RES
107 *17:1 *17:2 0.7567
108 *17:3 *17:4 2.580357142857143
109 *17:3 *17:2 0
110 mask_rev_value\[25\]:LO mask_rev_value\[25\]:LO 0
111 mask_rev_value\[25\]:LO *17:4 0
*END

*D_NET *18 0.0021822583064200003
*CONN
*P mask_rev[26] O
*I mask_rev_value\[26\]:LO O
*CAP
112 *18:1 0.0007004538138500002
113 *18:2 0.0007415694379700002
114 *18:3 0.00039067533936000006
115 *18:4 0.00034955971524000003
116 mask_rev_value\[26\]:LO 0.0
*RES
112 *18:1 *18:2 15.9375
113 *18:3 *18:2 0.8214285714285714
114 *18:3 *18:4 7.892857142857142
115 mask_rev_value\[26\]:LO mask_rev_value\[26\]:LO 0
116 mask_rev_value\[26\]:LO *18:1 0
*END

*D_NET *19 0.0031384792349
*CONN
*P mask_rev[27] O
*I mask_rev_value\[27\]:LO O
*CAP
117 *19:1 0.0006474886668899999
118 *19:2 0.0006474886668899999
119 *19:3 0.0009217509505600001
120 mask_rev_value\[27\]:LO 0.0009217509505600001
*RES
117 *19:1 *19:2 14.723214285714283
118 *19:3 mask_rev_value\[27\]:LO 19.303571428571427
119 *19:3 *19:1 0
120 mask_rev_value\[27\]:LO mask_rev_value\[27\]:LO 0
*END

*D_NET *20 0.00201995513372
*CONN
*P mask_rev[28] O
*I mask_rev_value\[28\]:LO O
*CAP
121 *20:1 0.00019728491772999998
122 *20:2 0.00019728491772999998
123 *20:3 0.0004951591174499999
124 *20:4 0.0004951591174499999
125 mask_rev_value\[28\]:LO 0.00031753353168
126 *20:5 0.00031753353168
*RES
121 *20:1 *20:2 4.4017857142857135
122 *20:3 *20:4 1.7656333333333334
123 mask_rev_value\[28\]:LO *20:5 6.571428571428571
124 mask_rev_value\[28\]:LO mask_rev_value\[28\]:LO 0
125 *20:5 *20:1 0
126 *20:2 *20:3 0
*END

*D_NET *21 0.00246563259682
*CONN
*P mask_rev[29] O
*I mask_rev_value\[29\]:LO O
*CAP
127 mask_rev_value\[29\]:LO 0.00016160645584
128 *21:1 0.00016160645584
129 *21:2 0.00107120984257
130 *21:3 0.00107120984257
*RES
127 mask_rev_value\[29\]:LO *21:1 3.2857142857142856
128 *21:2 *21:3 24.4375
129 *21:1 *21:3 0
130 mask_rev_value\[29\]:LO mask_rev_value\[29\]:LO 0
*END

*D_NET *22 0.00105582908416
*CONN
*P mask_rev[2] O
*I mask_rev_value\[2\]:LO O
*CAP
131 *22:1 2.5170264480000005e-05
132 mask_rev_value\[2\]:LO 2.5170264480000005e-05
133 *22:2 0.00030321521165
134 *22:3 0.00030321521165
135 *22:4 0.00019952906594999998
136 *22:5 0.00019952906594999998
*RES
131 *22:1 mask_rev_value\[2\]:LO 0.4107142857142857
132 *22:2 *22:3 6.830357142857142
133 *22:4 *22:5 0.6846333333333334
134 mask_rev_value\[2\]:LO mask_rev_value\[2\]:LO 0
135 *22:1 *22:2 0
136 *22:3 *22:5 0
*END

*D_NET *23 0.0018830897187599998
*CONN
*P mask_rev[30] O
*I mask_rev_value\[30\]:LO O
*CAP
137 *23:1 1.1906903370000003e-05
138 *23:2 1.1906903370000003e-05
139 *23:3 0.0004951591174499999
140 *23:4 0.0004951591174499999
141 mask_rev_value\[30\]:LO 0.00043447883856
142 *23:5 0.00043447883856
*RES
137 *23:1 *23:2 0.15178571428571427
138 *23:3 *23:4 1.7656333333333334
139 mask_rev_value\[30\]:LO *23:5 9.035714285714285
140 mask_rev_value\[30\]:LO mask_rev_value\[30\]:LO 0
141 *23:5 *23:1 0
142 *23:2 *23:3 0
*END

*D_NET *24 0.0016446728189399998
*CONN
*P mask_rev[31] O
*I mask_rev_value\[31\]:LO O
*CAP
143 *24:1 0.00016160645584
144 mask_rev_value\[31\]:LO 0.00016160645584
145 *24:2 0.0006607299536299999
146 *24:3 0.0006607299536299999
*RES
143 *24:1 mask_rev_value\[31\]:LO 3.2857142857142856
144 *24:2 *24:3 15.026785714285712
145 *24:1 *24:3 0
146 mask_rev_value\[31\]:LO mask_rev_value\[31\]:LO 0
*END

*D_NET *25 0.00284503367262
*CONN
*P mask_rev[3] O
*I mask_rev_value\[3\]:LO O
*CAP
147 *25:1 0.00062762673678
148 *25:2 0.00062762673678
149 *25:3 0.0001376991274
150 *25:4 0.00016090006946
151 *25:5 0.00033965744045000003
152 *25:6 0.00031753353168
153 *25:7 0.00031753353168
154 *25:8 0.00031645649839
155 mask_rev_value\[3\]:LO 0.0
*RES
147 *25:1 *25:2 14.267857142857142
148 *25:3 *25:4 3.035714285714285
149 *25:4 *25:5 0.4107142857142857
150 *25:6 *25:7 6.571428571428571
151 *25:5 *25:8 7.133928571428571
152 *25:6 *25:1 0
153 mask_rev_value\[3\]:LO mask_rev_value\[3\]:LO 0
154 mask_rev_value\[3\]:LO *25:2 0
155 *25:7 *25:8 0
*END

*D_NET *26 0.0028783570980400004
*CONN
*P mask_rev[4] O
*I mask_rev_value\[4\]:LO O
*CAP
156 *26:1 0.00035618035861000003
157 *26:2 0.00035618035861000003
158 *26:3 0.0004951591174499999
159 *26:4 0.0005365903732499999
160 *26:5 0.00025081465679999994
161 *26:6 0.00020938340099999997
162 mask_rev_value\[4\]:LO 0.00033702441616
163 *26:7 0.00033702441616
*RES
156 *26:1 *26:2 8.044642857142856
157 *26:3 *26:4 1.7656333333333334
158 *26:5 *26:4 0.10653333333333334
159 *26:5 *26:6 0.7206666666666666
160 mask_rev_value\[4\]:LO *26:7 6.982142857142857
161 mask_rev_value\[4\]:LO mask_rev_value\[4\]:LO 0
162 *26:7 *26:2 0
163 *26:1 *26:3 0
*END

*D_NET *27 0.00175818741208
*CONN
*P mask_rev[5] O
*I mask_rev_value\[5\]:LO O
*CAP
164 mask_rev_value\[5\]:LO 4.466114896e-05
165 *27:1 4.466114896e-05
166 *27:2 0.00019728491772999998
167 *27:3 0.00019728491772999998
168 *27:4 0.00035719842675
169 *27:5 0.00042776423835
170 *27:6 0.0002799492126
171 *27:7 0.00020938340099999997
*RES
164 mask_rev_value\[5\]:LO *27:1 0.8214285714285714
165 *27:2 *27:3 4.4017857142857135
166 *27:4 *27:5 1.2611666666666668
167 *27:5 *27:6 0.21306666666666668
168 *27:6 *27:7 0.7206666666666666
169 mask_rev_value\[5\]:LO mask_rev_value\[5\]:LO 0
170 *27:1 *27:2 0
171 *27:3 *27:4 0
*END

*D_NET *28 0.0029536327494000003
*CONN
*P mask_rev[6] O
*I mask_rev_value\[6\]:LO O
*CAP
172 mask_rev_value\[6\]:LO 3.449199184e-05
173 *28:1 0.00025457110112
174 *28:2 0.00016996606079999998
175 *28:3 0.00021139731659999998
176 *28:4 0.00045775569284999993
177 *28:5 0.0005945235199300001
178 *28:6 0.0005945235199300001
179 *28:7 0.00022007910927999998
180 *28:8 0.00041632443704999996
*RES
172 mask_rev_value\[6\]:LO *28:1 0.6071428571428571
173 *28:2 *28:3 0.5765333333333333
174 *28:3 *28:4 0.10653333333333334
175 *28:5 *28:6 13.508928571428571
176 *28:1 *28:7 4.517857142857142
177 *28:4 *28:8 1.4773666666666667
178 mask_rev_value\[6\]:LO mask_rev_value\[6\]:LO 0
179 *28:7 *28:5 0
180 *28:6 *28:8 0
*END

*D_NET *29 0.00241893533562
*CONN
*P mask_rev[7] O
*I mask_rev_value\[7\]:LO O
*CAP
181 *29:1 0.00037660098656
182 mask_rev_value\[7\]:LO 0.00035651530064
183 *29:2 2.008568592e-05
184 *29:3 0.0008328666812500001
185 *29:4 0.0008328666812500001
*RES
181 *29:1 mask_rev_value\[7\]:LO 7.3928571428571415
182 *29:1 *29:2 0.30357142857142855
183 *29:3 *29:4 18.973214285714285
184 mask_rev_value\[7\]:LO mask_rev_value\[7\]:LO 0
185 *29:2 *29:3 0
*END

*D_NET *30 0.0027508185403400005
*CONN
*P mask_rev[8] O
*I mask_rev_value\[8\]:LO O
*CAP
186 *30:1 0.0001376991274
187 *30:2 0.00019672943358
188 *30:3 0.0006667951128500002
189 mask_rev_value\[8\]:LO 0.00057091502992
190 *30:4 0.00057091502992
191 *30:5 0.0006077648066700001
*RES
186 *30:1 *30:2 3.035714285714285
187 *30:3 *30:2 1.232142857142857
188 mask_rev_value\[8\]:LO *30:4 11.910714285714285
189 *30:3 *30:5 13.8125
190 mask_rev_value\[8\]:LO mask_rev_value\[8\]:LO 0
191 *30:4 *30:5 0
*END

*D_NET *31 0.00272574573602
*CONN
*P mask_rev[9] O
*I mask_rev_value\[9\]:LO O
*CAP
192 *31:1 0.00038266293209
193 *31:2 0.00040586387415
194 *31:3 0.00026683036338
195 *31:4 0.00024362942132
196 *31:5 4.501012022000001e-05
197 *31:6 4.501012022000001e-05
198 *31:7 0.0006683694523200001
199 *31:8 0.0006683694523200001
200 mask_rev_value\[9\]:LO 0.0
*RES
192 *31:1 *31:2 8.651785714285714
193 *31:2 *31:3 0.4107142857142857
194 *31:3 *31:4 5.4642857142857135
195 *31:5 *31:6 0.9107142857142857
196 *31:7 *31:8 13.964285714285714
197 *31:7 *31:1 0
198 *31:8 *31:5 0
199 mask_rev_value\[9\]:LO mask_rev_value\[9\]:LO 0
200 mask_rev_value\[9\]:LO *31:6 0
*END

*D_NET *32 0
*CONN
*P vdd1v8 O
*CAP
*RES
*END

*D_NET *33 0
*CONN
*P vss O
*CAP
*RES
*END

*D_NET *34 0
*CONN
*I mask_rev_value\[0\]:HI O
*CAP
*RES
*END

*D_NET *35 0
*CONN
*I mask_rev_value\[10\]:HI O
*CAP
*RES
*END

*D_NET *36 0
*CONN
*I mask_rev_value\[11\]:HI O
*CAP
*RES
*END

*D_NET *37 0
*CONN
*I mask_rev_value\[12\]:HI O
*CAP
*RES
*END

*D_NET *38 0
*CONN
*I mask_rev_value\[13\]:HI O
*CAP
*RES
*END

*D_NET *39 0
*CONN
*I mask_rev_value\[14\]:HI O
*CAP
*RES
*END

*D_NET *40 0
*CONN
*I mask_rev_value\[15\]:HI O
*CAP
*RES
*END

*D_NET *41 0
*CONN
*I mask_rev_value\[16\]:HI O
*CAP
*RES
*END

*D_NET *42 0
*CONN
*I mask_rev_value\[17\]:HI O
*CAP
*RES
*END

*D_NET *43 0
*CONN
*I mask_rev_value\[18\]:HI O
*CAP
*RES
*END

*D_NET *44 0
*CONN
*I mask_rev_value\[19\]:HI O
*CAP
*RES
*END

*D_NET *45 0
*CONN
*I mask_rev_value\[1\]:HI O
*CAP
*RES
*END

*D_NET *46 0
*CONN
*I mask_rev_value\[20\]:HI O
*CAP
*RES
*END

*D_NET *47 0
*CONN
*I mask_rev_value\[21\]:HI O
*CAP
*RES
*END

*D_NET *48 0
*CONN
*I mask_rev_value\[22\]:HI O
*CAP
*RES
*END

*D_NET *49 0
*CONN
*I mask_rev_value\[23\]:HI O
*CAP
*RES
*END

*D_NET *50 0
*CONN
*I mask_rev_value\[24\]:HI O
*CAP
*RES
*END

*D_NET *51 0
*CONN
*I mask_rev_value\[25\]:HI O
*CAP
*RES
*END

*D_NET *52 0
*CONN
*I mask_rev_value\[26\]:HI O
*CAP
*RES
*END

*D_NET *53 0
*CONN
*I mask_rev_value\[27\]:HI O
*CAP
*RES
*END

*D_NET *54 0
*CONN
*I mask_rev_value\[28\]:HI O
*CAP
*RES
*END

*D_NET *55 0
*CONN
*I mask_rev_value\[29\]:HI O
*CAP
*RES
*END

*D_NET *56 0
*CONN
*I mask_rev_value\[2\]:HI O
*CAP
*RES
*END

*D_NET *57 0
*CONN
*I mask_rev_value\[30\]:HI O
*CAP
*RES
*END

*D_NET *58 0
*CONN
*I mask_rev_value\[31\]:HI O
*CAP
*RES
*END

*D_NET *59 0
*CONN
*I mask_rev_value\[3\]:HI O
*CAP
*RES
*END

*D_NET *60 0
*CONN
*I mask_rev_value\[4\]:HI O
*CAP
*RES
*END

*D_NET *61 0
*CONN
*I mask_rev_value\[5\]:HI O
*CAP
*RES
*END

*D_NET *62 0
*CONN
*I mask_rev_value\[6\]:HI O
*CAP
*RES
*END

*D_NET *63 0
*CONN
*I mask_rev_value\[7\]:HI O
*CAP
*RES
*END

*D_NET *64 0
*CONN
*I mask_rev_value\[8\]:HI O
*CAP
*RES
*END

*D_NET *65 0
*CONN
*I mask_rev_value\[9\]:HI O
*CAP
*RES
*END

