*SPEF "IEEE 1481-1998"
*DESIGN "user_id_programming"
*DATE "Wed Nov 25 19:51:27 2020"
*VENDOR "AUC CSCE Department"
*PROGRAM "SPEF Extractor"
*VERSION "1.0"
*DESIGN_FLOW "PIN_CAP NONE"
*DIVIDER /
*DELIMITER :
*BUS_DELIMITER []
*T_UNIT 1.00000 NS
*C_UNIT 1.00000 PF
*R_UNIT 1.00000 OHM
*L_UNIT 1.00000 HENRY


*NAME_MAP
*0 mask_rev[0]
*1 mask_rev[10]
*2 mask_rev[11]
*3 mask_rev[12]
*4 mask_rev[13]
*5 mask_rev[14]
*6 mask_rev[15]
*7 mask_rev[16]
*8 mask_rev[17]
*9 mask_rev[18]
*10 mask_rev[19]
*11 mask_rev[1]
*12 mask_rev[20]
*13 mask_rev[21]
*14 mask_rev[22]
*15 mask_rev[23]
*16 mask_rev[24]
*17 mask_rev[25]
*18 mask_rev[26]
*19 mask_rev[27]
*20 mask_rev[28]
*21 mask_rev[29]
*22 mask_rev[2]
*23 mask_rev[30]
*24 mask_rev[31]
*25 mask_rev[3]
*26 mask_rev[4]
*27 mask_rev[5]
*28 mask_rev[6]
*29 mask_rev[7]
*30 mask_rev[8]
*31 mask_rev[9]
*32 user_proj_id_high\[0\]
*33 user_proj_id_high\[10\]
*34 user_proj_id_high\[11\]
*35 user_proj_id_high\[12\]
*36 user_proj_id_high\[13\]
*37 user_proj_id_high\[14\]
*38 user_proj_id_high\[15\]
*39 user_proj_id_high\[16\]
*40 user_proj_id_high\[17\]
*41 user_proj_id_high\[18\]
*42 user_proj_id_high\[19\]
*43 user_proj_id_high\[1\]
*44 user_proj_id_high\[20\]
*45 user_proj_id_high\[21\]
*46 user_proj_id_high\[22\]
*47 user_proj_id_high\[23\]
*48 user_proj_id_high\[24\]
*49 user_proj_id_high\[25\]
*50 user_proj_id_high\[26\]
*51 user_proj_id_high\[27\]
*52 user_proj_id_high\[28\]
*53 user_proj_id_high\[29\]
*54 user_proj_id_high\[2\]
*55 user_proj_id_high\[30\]
*56 user_proj_id_high\[31\]
*57 user_proj_id_high\[3\]
*58 user_proj_id_high\[4\]
*59 user_proj_id_high\[5\]
*60 user_proj_id_high\[6\]
*61 user_proj_id_high\[7\]
*62 user_proj_id_high\[8\]
*63 user_proj_id_high\[9\]

*D_NET *0 0.0023452756345000002
*CONN
*P mask_rev[0] O
*I mask_rev_value\[0\]:LO O
*CAP
0 mask_rev_value\[0\]:LO 0.0002980426472
1 *0:1 0.0002980426472
2 *0:2 0.00063424738015
3 *0:3 0.00065744832221
4 *0:4 0.00024034778990000003
5 *0:5 0.00021714684784000001
*RES
0 mask_rev_value\[0\]:LO *0:1 6.160714285714286
1 *0:2 *0:3 14.419642857142854
2 *0:3 *0:4 0.4107142857142857
3 *0:4 *0:5 4.857142857142857
4 mask_rev_value\[0\]:LO mask_rev_value\[0\]:LO 0
5 *0:1 *0:2 0
*END

*D_NET *1 0.00146226316962
*CONN
*P mask_rev[10] O
*I mask_rev_value\[10\]:LO O
*CAP
6 *1:1 0.0006474886668899999
7 *1:2 0.0006474886668899999
8 *1:3 8.364291792e-05
9 mask_rev_value\[10\]:LO 8.364291792e-05
*RES
6 *1:1 *1:2 14.723214285714283
7 *1:3 mask_rev_value\[10\]:LO 1.6428571428571428
8 *1:3 *1:2 0
9 mask_rev_value\[10\]:LO mask_rev_value\[10\]:LO 0
*END

*D_NET *2 0.0012440225613
*CONN
*P mask_rev[11] O
*I mask_rev_value\[11\]:LO O
*CAP
10 *2:1 5.825140696e-05
11 *2:2 8.145234902e-05
12 *2:3 0.00020724457305
13 *2:4 0.00018404363099
14 *2:5 0.00035651530064
15 mask_rev_value\[11\]:LO 0.00035651530064
*RES
10 *2:1 *2:2 1.2142857142857142
11 *2:2 *2:3 0.4107142857142857
12 *2:3 *2:4 4.098214285714286
13 *2:5 mask_rev_value\[11\]:LO 7.3928571428571415
14 *2:5 *2:4 0
15 mask_rev_value\[11\]:LO mask_rev_value\[11\]:LO 0
*END

*D_NET *3 0.00322998365786
*CONN
*P mask_rev[12] O
*I mask_rev_value\[12\]:LO O
*CAP
16 *3:1 0.00058128223319
17 *3:2 0.00058128223319
18 *3:3 0.0008827691816
19 *3:4 0.0008827691816
20 *3:5 0.00015094041414000003
21 *3:6 0.00015094041414000003
22 mask_rev_value\[12\]:LO 0.0
*RES
16 *3:1 *3:2 13.20535714285714
17 *3:3 *3:4 18.482142857142854
18 *3:5 *3:6 3.339285714285714
19 *3:3 *3:2 0
20 *3:4 *3:5 0
21 mask_rev_value\[12\]:LO mask_rev_value\[12\]:LO 0
22 mask_rev_value\[12\]:LO *3:6 0
*END

*D_NET *4 0.0018480434684600001
*CONN
*P mask_rev[13] O
*I mask_rev_value\[13\]:LO O
*CAP
23 mask_rev_value\[13\]:LO 0.00014211557136
24 *4:1 0.00014211557136
25 *4:2 0.00035618035861000003
26 *4:3 0.00037938130067000005
27 *4:4 0.0004257258042600001
28 *4:5 0.00040252486220000006
*RES
23 mask_rev_value\[13\]:LO *4:1 2.875
24 *4:2 *4:3 8.044642857142856
25 *4:4 *4:3 0.4107142857142857
26 *4:4 *4:5 9.107142857142856
27 mask_rev_value\[13\]:LO mask_rev_value\[13\]:LO 0
28 *4:1 *4:2 0
*END

*D_NET *5 0.00245883741954
*CONN
*P mask_rev[14] O
*I mask_rev_value\[14\]:LO O
*CAP
29 *5:1 0.0005415583729700001
30 *5:2 0.0005415583729700001
31 mask_rev_value\[14\]:LO 0.0006878603368000001
32 *5:3 0.0006878603368000001
*RES
29 *5:1 *5:2 12.294642857142856
30 mask_rev_value\[14\]:LO *5:3 14.375
31 *5:3 *5:2 0
32 mask_rev_value\[14\]:LO mask_rev_value\[14\]:LO 0
*END

*D_NET *6 0.00091004086784
*CONN
*P mask_rev[15] O
*I mask_rev_value\[15\]:LO O
*CAP
33 *6:1 7.811333707000002e-05
34 *6:2 7.811333707000002e-05
35 *6:3 0.00037690709685
36 *6:4 0.00037690709685
37 mask_rev_value\[15\]:LO 0.0
*RES
33 *6:1 *6:2 1.669642857142857
34 *6:3 *6:4 1.3332333333333333
35 mask_rev_value\[15\]:LO mask_rev_value\[15\]:LO 0
36 mask_rev_value\[15\]:LO *6:1 0
37 *6:2 *6:3 0
*END

*D_NET *7 0.00221101259518
*CONN
*P mask_rev[16] O
*I mask_rev_value\[16\]:LO O
*CAP
38 *7:1 0.00052831708623
39 *7:2 0.00052831708623
40 *7:3 0.00022007910927999998
41 *7:4 0.0002401647952
42 *7:5 0.00035711010208
43 mask_rev_value\[16\]:LO 0.00033702441616
*RES
38 *7:1 *7:2 11.991071428571427
39 *7:3 *7:4 4.517857142857142
40 *7:5 *7:4 0.30357142857142855
41 *7:5 mask_rev_value\[16\]:LO 6.982142857142857
42 *7:3 *7:2 0
43 mask_rev_value\[16\]:LO mask_rev_value\[16\]:LO 0
*END

*D_NET *8 0.0010831167459400002
*CONN
*P mask_rev[17] O
*I mask_rev_value\[17\]:LO O
*CAP
44 *8:1 0.0005415583729700001
45 *8:2 0.0005415583729700001
46 mask_rev_value\[17\]:LO 0.0
*RES
44 *8:1 *8:2 12.294642857142856
45 mask_rev_value\[17\]:LO mask_rev_value\[17\]:LO 0
46 mask_rev_value\[17\]:LO *8:1 0
*END

*D_NET *9 0.00217675335204
*CONN
*P mask_rev[18] O
*I mask_rev_value\[18\]:LO O
*CAP
47 *9:1 0.00035651530064
48 mask_rev_value\[18\]:LO 0.00035651530064
49 *9:2 0.00019728491772999998
50 *9:3 0.00019728491772999998
51 *9:4 0.00053457645765
52 *9:5 0.00053457645765
*RES
47 *9:1 mask_rev_value\[18\]:LO 7.3928571428571415
48 *9:2 *9:3 4.4017857142857135
49 *9:4 *9:5 1.9097666666666666
50 mask_rev_value\[18\]:LO mask_rev_value\[18\]:LO 0
51 *9:1 *9:2 0
52 *9:3 *9:5 0
*END

*D_NET *10 0.0010215902509
*CONN
*P mask_rev[19] O
*I mask_rev_value\[19\]:LO O
*CAP
53 mask_rev_value\[19\]:LO 0.00018109734031999995
54 *10:1 0.00018109734031999995
55 *10:2 0.00032969778513
56 *10:3 0.00032969778513
*RES
53 mask_rev_value\[19\]:LO *10:1 3.6964285714285707
54 *10:2 *10:3 7.437499999999999
55 mask_rev_value\[19\]:LO mask_rev_value\[19\]:LO 0
56 *10:1 *10:2 0
*END

*D_NET *11 0.00170828245436
*CONN
*P mask_rev[1] O
*I mask_rev_value\[1\]:LO O
*CAP
57 *11:1 0.00019728491772999998
58 *11:2 0.00019728491772999998
59 *11:3 0.00044747290845000004
60 *11:4 0.00037690709685
61 *11:5 0.0002799492126
62 *11:6 0.00020938340099999997
63 mask_rev_value\[1\]:LO 0.0
*RES
57 *11:1 *11:2 4.4017857142857135
58 *11:3 *11:4 1.3332333333333333
59 *11:3 *11:5 0.21306666666666668
60 *11:6 *11:5 0.7206666666666666
61 mask_rev_value\[1\]:LO mask_rev_value\[1\]:LO 0
62 mask_rev_value\[1\]:LO *11:1 0
63 *11:2 *11:4 0
*END

*D_NET *12 0.0019373438732
*CONN
*P mask_rev[20] O
*I mask_rev_value\[20\]:LO O
*CAP
64 *12:1 0.00023700877795000002
65 *12:2 0.00023700877795000002
66 *12:3 0.00073166315865
67 *12:4 0.00073166315865
68 mask_rev_value\[20\]:LO 0.0
*RES
64 *12:1 *12:2 5.3125
65 *12:3 *12:4 2.6304333333333334
66 mask_rev_value\[20\]:LO mask_rev_value\[20\]:LO 0
67 mask_rev_value\[20\]:LO *12:1 0
68 *12:2 *12:3 0
*END

*D_NET *13 0.0025983646098800004
*CONN
*P mask_rev[21] O
*I mask_rev_value\[21\]:LO O
*CAP
69 mask_rev_value\[21\]:LO 6.415203344e-05
70 *13:1 6.415203344e-05
71 *13:2 0.0007004538138500002
72 *13:3 0.0007004538138500002
73 *13:4 0.00053457645765
74 *13:5 0.00053457645765
*RES
69 mask_rev_value\[21\]:LO *13:1 1.232142857142857
70 *13:2 *13:3 15.9375
71 *13:4 *13:5 1.9097666666666666
72 mask_rev_value\[21\]:LO mask_rev_value\[21\]:LO 0
73 *13:1 *13:3 0
74 *13:2 *13:4 0
*END

*D_NET *14 0.00286511560668
*CONN
*P mask_rev[22] O
*I mask_rev_value\[22\]:LO O
*CAP
75 mask_rev_value\[22\]:LO 6.415203344e-05
76 *14:1 6.415203344e-05
77 *14:2 0.0004356280790500001
78 *14:3 0.0004356280790500001
79 *14:4 0.0005657249290499999
80 *14:5 0.0004951591174499999
81 *14:6 0.0004376185734
82 *14:7 0.00036705276179999996
*RES
75 mask_rev_value\[22\]:LO *14:1 1.232142857142857
76 *14:2 *14:3 9.866071428571429
77 *14:4 *14:5 1.7656333333333334
78 *14:4 *14:6 0.21306666666666668
79 *14:7 *14:6 1.2972
80 mask_rev_value\[22\]:LO mask_rev_value\[22\]:LO 0
81 *14:1 *14:2 0
82 *14:3 *14:5 0
*END

*D_NET *15 0.0032722775389000007
*CONN
*P mask_rev[23] O
*I mask_rev_value\[23\]:LO O
*CAP
83 *15:1 0.00040914550557
84 *15:2 0.00040914550557
85 *15:3 0.00062938768336
86 *15:4 0.00062938768336
87 *15:5 0.0004554900091600001
88 *15:6 0.0004554900091600001
89 *15:7 0.00014211557136
90 mask_rev_value\[23\]:LO 0.00014211557136
*RES
83 *15:1 *15:2 9.25892857142857
84 *15:3 *15:4 13.142857142857142
85 *15:5 *15:6 10.321428571428571
86 *15:7 mask_rev_value\[23\]:LO 2.875
87 *15:3 *15:2 0
88 *15:4 *15:5 0
89 *15:7 *15:6 0
90 mask_rev_value\[23\]:LO mask_rev_value\[23\]:LO 0
*END

*D_NET *16 0.00278438036958
*CONN
*P mask_rev[24] O
*I mask_rev_value\[24\]:LO O
*CAP
91 mask_rev_value\[24\]:LO 2.008568592e-05
92 *16:1 0.00086387309856
93 *16:2 0.00084378741264
94 *16:3 0.00052831708623
95 *16:4 0.00052831708623
*RES
91 mask_rev_value\[24\]:LO *16:1 0.30357142857142855
92 *16:1 *16:2 17.660714285714285
93 *16:3 *16:4 11.991071428571427
94 mask_rev_value\[24\]:LO mask_rev_value\[24\]:LO 0
95 *16:2 *16:3 0
*END

*D_NET *17 0.0018224565903999998
*CONN
*P mask_rev[25] O
*I mask_rev_value\[25\]:LO O
*CAP
96 *17:1 0.00020938340099999997
97 *17:2 0.00025081465679999994
98 *17:3 0.00039862968255
99 *17:4 0.00035719842675
100 *17:5 0.00030321521165
101 *17:6 0.00030321521165
102 mask_rev_value\[25\]:LO 0.0
*RES
96 *17:1 *17:2 0.7206666666666666
97 *17:2 *17:3 0.10653333333333334
98 *17:3 *17:4 1.2611666666666668
99 *17:5 *17:6 6.830357142857142
100 *17:5 *17:4 0
101 mask_rev_value\[25\]:LO mask_rev_value\[25\]:LO 0
102 mask_rev_value\[25\]:LO *17:6 0
*END

*D_NET *18 0.0012893843507400002
*CONN
*P mask_rev[26] O
*I mask_rev_value\[26\]:LO O
*CAP
103 *18:1 0.0001031338024
104 mask_rev_value\[26\]:LO 0.0001031338024
105 *18:2 0.0005415583729700001
106 *18:3 0.0005415583729700001
*RES
103 *18:1 mask_rev_value\[26\]:LO 2.0535714285714284
104 *18:2 *18:3 12.294642857142856
105 mask_rev_value\[26\]:LO mask_rev_value\[26\]:LO 0
106 *18:1 *18:2 0
*END

*D_NET *19 0.0022022910445400005
*CONN
*P mask_rev[27] O
*I mask_rev_value\[27\]:LO O
*CAP
107 *19:1 0.00012262468688
108 mask_rev_value\[27\]:LO 0.00012262468688
109 *19:2 0.00097852083539
110 *19:3 0.00097852083539
*RES
107 *19:1 mask_rev_value\[27\]:LO 2.464285714285714
108 *19:2 *19:3 22.312499999999996
109 mask_rev_value\[27\]:LO mask_rev_value\[27\]:LO 0
110 *19:1 *19:2 0
*END

*D_NET *20 0.0035886829840600003
*CONN
*P mask_rev[28] O
*I mask_rev_value\[28\]:LO O
*CAP
111 mask_rev_value\[28\]:LO 0.0009217509505600001
112 *20:1 0.0009217509505600001
113 *20:2 0.00087259054147
114 *20:3 0.00087259054147
*RES
111 mask_rev_value\[28\]:LO *20:1 19.303571428571427
112 *20:2 *20:3 19.88392857142857
113 mask_rev_value\[28\]:LO mask_rev_value\[28\]:LO 0
114 *20:1 *20:2 0
*END

*D_NET *21 0.0014372647786600004
*CONN
*P mask_rev[29] O
*I mask_rev_value\[29\]:LO O
*CAP
115 *21:1 0.0006739712403700002
116 *21:2 0.0006739712403700002
117 *21:3 4.466114896e-05
118 mask_rev_value\[29\]:LO 4.466114896e-05
*RES
115 *21:1 *21:2 15.330357142857142
116 *21:3 mask_rev_value\[29\]:LO 0.8214285714285714
117 *21:3 *21:2 0
118 mask_rev_value\[29\]:LO mask_rev_value\[29\]:LO 0
*END

*D_NET *22 0.0013032675046800001
*CONN
*P mask_rev[2] O
*I mask_rev_value\[2\]:LO O
*CAP
119 *22:1 0.00017982039585
120 *22:2 0.00017982039585
121 *22:3 0.00032969778513
122 *22:4 0.00032969778513
123 *22:5 0.00014211557136
124 mask_rev_value\[2\]:LO 0.00014211557136
*RES
119 *22:1 *22:2 0.6125666666666667
120 *22:3 *22:4 7.437499999999999
121 *22:5 mask_rev_value\[2\]:LO 2.875
122 *22:3 *22:2 0
123 *22:5 *22:4 0
124 mask_rev_value\[2\]:LO mask_rev_value\[2\]:LO 0
*END

*D_NET *23 0.0015807486912800001
*CONN
*P mask_rev[30] O
*I mask_rev_value\[30\]:LO O
*CAP
125 *23:1 0.00011783719729000003
126 *23:2 0.00011783719729000003
127 *23:3 0.00067253714835
128 *23:4 0.00067253714835
129 mask_rev_value\[30\]:LO 0.0
*RES
125 *23:1 *23:2 2.580357142857143
126 *23:3 *23:4 2.4142333333333332
127 mask_rev_value\[30\]:LO mask_rev_value\[30\]:LO 0
128 mask_rev_value\[30\]:LO *23:1 0
129 *23:2 *23:3 0
*END

*D_NET *24 0.00156329762558
*CONN
*P mask_rev[31] O
*I mask_rev_value\[31\]:LO O
*CAP
130 *24:1 8.473398044000001e-05
131 *24:2 0.00010793492250000001
132 *24:3 0.00037938130067000005
133 *24:4 0.00035618035861000003
134 mask_rev_value\[31\]:LO 0.00031753353168
135 *24:5 0.00031753353168
*RES
130 *24:1 *24:2 1.8214285714285714
131 *24:2 *24:3 0.4107142857142857
132 *24:3 *24:4 8.044642857142856
133 mask_rev_value\[31\]:LO *24:5 6.571428571428571
134 *24:5 *24:4 0
135 mask_rev_value\[31\]:LO mask_rev_value\[31\]:LO 0
*END

*D_NET *25 0.00130288751442
*CONN
*P mask_rev[3] O
*I mask_rev_value\[3\]:LO O
*CAP
136 *25:1 3.176883348000001e-05
137 *25:2 9.079913966e-05
138 *25:3 0.00024307393717
139 *25:4 0.00018404363099
140 *25:5 0.00037660098656
141 *25:6 0.00035651530064
142 mask_rev_value\[3\]:LO 2.008568592e-05
*RES
136 *25:1 *25:2 0.6071428571428571
137 *25:3 *25:2 1.232142857142857
138 *25:3 *25:4 4.098214285714286
139 *25:5 *25:6 7.3928571428571415
140 *25:5 mask_rev_value\[3\]:LO 0.30357142857142855
141 *25:6 *25:4 0
142 mask_rev_value\[3\]:LO mask_rev_value\[3\]:LO 0
*END

*D_NET *26 0.0009266538748000001
*CONN
*P mask_rev[4] O
*I mask_rev_value\[4\]:LO O
*CAP
143 *26:1 0.00030321521165
144 *26:2 0.00030321521165
145 *26:3 0.00016011172575
146 *26:4 0.00016011172575
147 mask_rev_value\[4\]:LO 0.0
*RES
143 *26:1 *26:2 6.830357142857142
144 *26:3 *26:4 0.5405000000000001
145 mask_rev_value\[4\]:LO mask_rev_value\[4\]:LO 0
146 mask_rev_value\[4\]:LO *26:1 0
147 *26:2 *26:3 0
*END

*D_NET *27 0.00146175260796
*CONN
*P mask_rev[5] O
*I mask_rev_value\[5\]:LO O
*CAP
148 *27:1 6.415203344e-05
149 mask_rev_value\[5\]:LO 6.415203344e-05
150 *27:2 0.00011783719729000003
151 *27:3 0.00011783719729000003
152 *27:4 0.00029807241645
153 *27:5 0.00033950367225
154 *27:6 0.00025081465679999994
155 *27:7 0.00020938340099999997
*RES
148 *27:1 mask_rev_value\[5\]:LO 1.232142857142857
149 *27:2 *27:3 2.580357142857143
150 *27:4 *27:5 1.0449666666666666
151 *27:6 *27:5 0.10653333333333334
152 *27:6 *27:7 0.7206666666666666
153 mask_rev_value\[5\]:LO mask_rev_value\[5\]:LO 0
154 *27:1 *27:3 0
155 *27:2 *27:4 0
*END

*D_NET *28 0.0005152544258
*CONN
*P mask_rev[6] O
*I mask_rev_value\[6\]:LO O
*CAP
156 *28:1 3.838947685e-05
157 *28:2 3.838947685e-05
158 *28:3 0.00021923773604999998
159 *28:4 0.00021923773604999998
160 mask_rev_value\[6\]:LO 0.0
*RES
156 *28:1 *28:2 0.7589285714285713
157 *28:3 *28:4 0.7567
158 mask_rev_value\[6\]:LO mask_rev_value\[6\]:LO 0
159 mask_rev_value\[6\]:LO *28:1 0
160 *28:2 *28:4 0
*END

*D_NET *29 0.0019226705617400005
*CONN
*P mask_rev[7] O
*I mask_rev_value\[7\]:LO O
*CAP
161 *29:1 6.415203344e-05
162 mask_rev_value\[7\]:LO 6.415203344e-05
163 *29:2 0.0007004538138500002
164 *29:3 0.0007594841200300002
165 *29:4 0.00019672943358
166 *29:5 0.0001376991274
*RES
161 *29:1 mask_rev_value\[7\]:LO 1.232142857142857
162 *29:2 *29:3 15.9375
163 *29:4 *29:3 1.232142857142857
164 *29:4 *29:5 3.035714285714285
165 mask_rev_value\[7\]:LO mask_rev_value\[7\]:LO 0
166 *29:1 *29:2 0
*END

*D_NET *30 0.00167071210202
*CONN
*P mask_rev[8] O
*I mask_rev_value\[8\]:LO O
*CAP
167 *30:1 0.00019066427435999997
168 *30:2 0.00021386521641999996
169 *30:3 0.0003661400139300001
170 *30:4 0.0003429390718700001
171 mask_rev_value\[8\]:LO 0.00027855176272
172 *30:5 0.00027855176272
*RES
167 *30:1 *30:2 4.249999999999999
168 *30:3 *30:2 0.4107142857142857
169 *30:3 *30:4 7.741071428571428
170 mask_rev_value\[8\]:LO *30:5 5.75
171 *30:5 *30:4 0
172 mask_rev_value\[8\]:LO mask_rev_value\[8\]:LO 0
*END

*D_NET *31 0.0027750453728600005
*CONN
*P mask_rev[9] O
*I mask_rev_value\[9\]:LO O
*CAP
173 *31:1 4.466114896e-05
174 mask_rev_value\[9\]:LO 4.466114896e-05
175 *31:2 0.0003363184285000001
176 *31:3 0.0003363184285000001
177 *31:4 0.00057091502992
178 *31:5 0.00057091502992
179 *31:6 0.0004356280790500001
180 *31:7 0.0004356280790500001
*RES
173 *31:1 mask_rev_value\[9\]:LO 0.8214285714285714
174 *31:2 *31:3 7.5892857142857135
175 *31:4 *31:5 11.910714285714285
176 *31:6 *31:7 9.866071428571429
177 mask_rev_value\[9\]:LO mask_rev_value\[9\]:LO 0
178 *31:1 *31:2 0
179 *31:5 *31:3 0
180 *31:4 *31:6 0
*END

*D_NET *32 0
*CONN
*I mask_rev_value\[0\]:HI O
*CAP
*RES
*END

*D_NET *33 0
*CONN
*I mask_rev_value\[10\]:HI O
*CAP
*RES
*END

*D_NET *34 0
*CONN
*I mask_rev_value\[11\]:HI O
*CAP
*RES
*END

*D_NET *35 0
*CONN
*I mask_rev_value\[12\]:HI O
*CAP
*RES
*END

*D_NET *36 0
*CONN
*I mask_rev_value\[13\]:HI O
*CAP
*RES
*END

*D_NET *37 0
*CONN
*I mask_rev_value\[14\]:HI O
*CAP
*RES
*END

*D_NET *38 0
*CONN
*I mask_rev_value\[15\]:HI O
*CAP
*RES
*END

*D_NET *39 0
*CONN
*I mask_rev_value\[16\]:HI O
*CAP
*RES
*END

*D_NET *40 0
*CONN
*I mask_rev_value\[17\]:HI O
*CAP
*RES
*END

*D_NET *41 0
*CONN
*I mask_rev_value\[18\]:HI O
*CAP
*RES
*END

*D_NET *42 0
*CONN
*I mask_rev_value\[19\]:HI O
*CAP
*RES
*END

*D_NET *43 0
*CONN
*I mask_rev_value\[1\]:HI O
*CAP
*RES
*END

*D_NET *44 0
*CONN
*I mask_rev_value\[20\]:HI O
*CAP
*RES
*END

*D_NET *45 0
*CONN
*I mask_rev_value\[21\]:HI O
*CAP
*RES
*END

*D_NET *46 0
*CONN
*I mask_rev_value\[22\]:HI O
*CAP
*RES
*END

*D_NET *47 0
*CONN
*I mask_rev_value\[23\]:HI O
*CAP
*RES
*END

*D_NET *48 0
*CONN
*I mask_rev_value\[24\]:HI O
*CAP
*RES
*END

*D_NET *49 0
*CONN
*I mask_rev_value\[25\]:HI O
*CAP
*RES
*END

*D_NET *50 0
*CONN
*I mask_rev_value\[26\]:HI O
*CAP
*RES
*END

*D_NET *51 0
*CONN
*I mask_rev_value\[27\]:HI O
*CAP
*RES
*END

*D_NET *52 0
*CONN
*I mask_rev_value\[28\]:HI O
*CAP
*RES
*END

*D_NET *53 0
*CONN
*I mask_rev_value\[29\]:HI O
*CAP
*RES
*END

*D_NET *54 0
*CONN
*I mask_rev_value\[2\]:HI O
*CAP
*RES
*END

*D_NET *55 0
*CONN
*I mask_rev_value\[30\]:HI O
*CAP
*RES
*END

*D_NET *56 0
*CONN
*I mask_rev_value\[31\]:HI O
*CAP
*RES
*END

*D_NET *57 0
*CONN
*I mask_rev_value\[3\]:HI O
*CAP
*RES
*END

*D_NET *58 0
*CONN
*I mask_rev_value\[4\]:HI O
*CAP
*RES
*END

*D_NET *59 0
*CONN
*I mask_rev_value\[5\]:HI O
*CAP
*RES
*END

*D_NET *60 0
*CONN
*I mask_rev_value\[6\]:HI O
*CAP
*RES
*END

*D_NET *61 0
*CONN
*I mask_rev_value\[7\]:HI O
*CAP
*RES
*END

*D_NET *62 0
*CONN
*I mask_rev_value\[8\]:HI O
*CAP
*RES
*END

*D_NET *63 0
*CONN
*I mask_rev_value\[9\]:HI O
*CAP
*RES
*END

