*SPEF "IEEE 1481-1998"
*DESIGN "digital_pll"
*DATE "Fri Nov 27 18:22:10 2020"
*VENDOR "AUC CSCE Department"
*PROGRAM "SPEF Extractor"
*VERSION "1.0"
*DESIGN_FLOW "PIN_CAP NONE"
*DIVIDER /
*DELIMITER :
*BUS_DELIMITER []
*T_UNIT 1.00000 NS
*C_UNIT 1.00000 PF
*R_UNIT 1.00000 OHM
*L_UNIT 1.00000 HENRY


*NAME_MAP
*0 clockp[0]
*1 clockp[1]
*2 dco
*3 div[0]
*4 div[1]
*5 div[2]
*6 div[3]
*7 div[4]
*8 enable
*9 ext_trim[0]
*10 ext_trim[10]
*11 ext_trim[11]
*12 ext_trim[12]
*13 ext_trim[13]
*14 ext_trim[14]
*15 ext_trim[15]
*16 ext_trim[16]
*17 ext_trim[17]
*18 ext_trim[18]
*19 ext_trim[19]
*20 ext_trim[1]
*21 ext_trim[20]
*22 ext_trim[21]
*23 ext_trim[22]
*24 ext_trim[23]
*25 ext_trim[24]
*26 ext_trim[25]
*27 ext_trim[2]
*28 ext_trim[3]
*29 ext_trim[4]
*30 ext_trim[5]
*31 ext_trim[6]
*32 ext_trim[7]
*33 ext_trim[8]
*34 ext_trim[9]
*35 osc
*36 resetb
*37 _000_
*38 _001_
*39 _002_
*40 _003_
*41 _004_
*42 _005_
*43 _006_
*44 _007_
*45 _008_
*46 _009_
*47 _010_
*48 _011_
*49 _012_
*50 _013_
*51 _014_
*52 _015_
*53 _016_
*54 _017_
*55 _018_
*56 _019_
*57 _020_
*58 _021_
*59 _022_
*60 _023_
*61 _024_
*62 _025_
*63 _026_
*64 _027_
*65 _028_
*66 _029_
*67 _030_
*68 _031_
*69 _032_
*70 _033_
*71 _034_
*72 _035_
*73 _036_
*74 _037_
*75 _038_
*76 _039_
*77 _040_
*78 _041_
*79 _042_
*80 _043_
*81 _044_
*82 _045_
*83 _046_
*84 _047_
*85 _048_
*86 _049_
*87 _050_
*88 _051_
*89 _052_
*90 _053_
*91 _054_
*92 _055_
*93 _056_
*94 _057_
*95 _058_
*96 _059_
*97 _060_
*98 _061_
*99 _062_
*100 _063_
*101 _064_
*102 _065_
*103 _066_
*104 _067_
*105 _068_
*106 _069_
*107 _070_
*108 _071_
*109 _072_
*110 _073_
*111 _074_
*112 _075_
*113 _076_
*114 _077_
*115 _078_
*116 _079_
*117 _080_
*118 _081_
*119 _082_
*120 _083_
*121 _084_
*122 _085_
*123 _086_
*124 _087_
*125 _088_
*126 _089_
*127 _090_
*128 _091_
*129 _092_
*130 _093_
*131 _094_
*132 _095_
*133 _096_
*134 _097_
*135 _098_
*136 _099_
*137 _100_
*138 _101_
*139 _102_
*140 _103_
*141 _104_
*142 _105_
*143 _106_
*144 _107_
*145 _108_
*146 _109_
*147 _110_
*148 _111_
*149 _112_
*150 _113_
*151 _114_
*152 _115_
*153 _116_
*154 _117_
*155 _118_
*156 _119_
*157 _120_
*158 _121_
*159 _122_
*160 _123_
*161 _124_
*162 _125_
*163 _126_
*164 _127_
*165 _128_
*166 _129_
*167 _130_
*168 _131_
*169 _132_
*170 _133_
*171 _134_
*172 _135_
*173 _136_
*174 _137_
*175 _138_
*176 _139_
*177 _140_
*178 _141_
*179 _142_
*180 _143_
*181 _144_
*182 _145_
*183 _146_
*184 _147_
*185 _148_
*186 _149_
*187 _150_
*188 _151_
*189 _152_
*190 _153_
*191 _154_
*192 _155_
*193 _156_
*194 _157_
*195 _158_
*196 _159_
*197 _160_
*198 _161_
*199 _162_
*200 _163_
*201 _164_
*202 _165_
*203 _166_
*204 _167_
*205 _168_
*206 _169_
*207 _170_
*208 _171_
*209 _172_
*210 _173_
*211 _174_
*212 _175_
*213 _176_
*214 _177_
*215 _178_
*216 _179_
*217 _180_
*218 _181_
*219 _182_
*220 _183_
*221 _184_
*222 _185_
*223 _186_
*224 _187_
*225 _188_
*226 _189_
*227 _190_
*228 _191_
*229 _192_
*230 _193_
*231 _194_
*232 _195_
*233 _196_
*234 _197_
*235 _198_
*236 _199_
*237 _200_
*238 _201_
*239 _202_
*240 _203_
*241 _204_
*242 _205_
*243 _206_
*244 _207_
*245 _208_
*246 _209_
*247 _210_
*248 _211_
*249 _212_
*250 _213_
*251 _214_
*252 _215_
*253 _216_
*254 _217_
*255 _218_
*256 _219_
*257 _220_
*258 _221_
*259 _222_
*260 _223_
*261 _224_
*262 _225_
*263 _226_
*264 _227_
*265 _228_
*266 _229_
*267 _230_
*268 _231_
*269 _232_
*270 _233_
*271 _234_
*272 _235_
*273 _236_
*274 _237_
*275 _238_
*276 _239_
*277 _240_
*278 _241_
*279 _242_
*280 _243_
*281 _244_
*282 _245_
*283 _246_
*284 _247_
*285 _248_
*286 _249_
*287 _250_
*288 _251_
*289 _252_
*290 _253_
*291 _254_
*292 _255_
*293 _256_
*294 _257_
*295 _258_
*296 pll_control.clock
*297 pll_control.count0\[0\]
*298 pll_control.count0\[1\]
*299 pll_control.count0\[2\]
*300 pll_control.count0\[3\]
*301 pll_control.count0\[4\]
*302 pll_control.count1\[0\]
*303 pll_control.count1\[1\]
*304 pll_control.count1\[2\]
*305 pll_control.count1\[3\]
*306 pll_control.count1\[4\]
*307 pll_control.oscbuf\[0\]
*308 pll_control.oscbuf\[1\]
*309 pll_control.oscbuf\[2\]
*310 pll_control.prep\[0\]
*311 pll_control.prep\[1\]
*312 pll_control.prep\[2\]
*313 pll_control.tint\[0\]
*314 pll_control.tint\[1\]
*315 pll_control.tint\[2\]
*316 pll_control.tint\[3\]
*317 pll_control.tint\[4\]
*318 pll_control.tval\[0\]
*319 pll_control.tval\[1\]
*320 ringosc.c\[0\]
*321 ringosc.c\[1\]
*322 ringosc.dstage\[0\].id.d0
*323 ringosc.dstage\[0\].id.d1
*324 ringosc.dstage\[0\].id.d2
*325 ringosc.dstage\[0\].id.in
*326 ringosc.dstage\[0\].id.out
*327 ringosc.dstage\[0\].id.trim\[0\]
*328 ringosc.dstage\[0\].id.trim\[1\]
*329 ringosc.dstage\[0\].id.ts
*330 ringosc.dstage\[10\].id.d0
*331 ringosc.dstage\[10\].id.d1
*332 ringosc.dstage\[10\].id.d2
*333 ringosc.dstage\[10\].id.in
*334 ringosc.dstage\[10\].id.out
*335 ringosc.dstage\[10\].id.trim\[0\]
*336 ringosc.dstage\[10\].id.trim\[1\]
*337 ringosc.dstage\[10\].id.ts
*338 ringosc.dstage\[11\].id.d0
*339 ringosc.dstage\[11\].id.d1
*340 ringosc.dstage\[11\].id.d2
*341 ringosc.dstage\[11\].id.out
*342 ringosc.dstage\[11\].id.trim\[0\]
*343 ringosc.dstage\[11\].id.trim\[1\]
*344 ringosc.dstage\[11\].id.ts
*345 ringosc.dstage\[1\].id.d0
*346 ringosc.dstage\[1\].id.d1
*347 ringosc.dstage\[1\].id.d2
*348 ringosc.dstage\[1\].id.out
*349 ringosc.dstage\[1\].id.trim\[0\]
*350 ringosc.dstage\[1\].id.trim\[1\]
*351 ringosc.dstage\[1\].id.ts
*352 ringosc.dstage\[2\].id.d0
*353 ringosc.dstage\[2\].id.d1
*354 ringosc.dstage\[2\].id.d2
*355 ringosc.dstage\[2\].id.out
*356 ringosc.dstage\[2\].id.trim\[0\]
*357 ringosc.dstage\[2\].id.trim\[1\]
*358 ringosc.dstage\[2\].id.ts
*359 ringosc.dstage\[3\].id.d0
*360 ringosc.dstage\[3\].id.d1
*361 ringosc.dstage\[3\].id.d2
*362 ringosc.dstage\[3\].id.out
*363 ringosc.dstage\[3\].id.trim\[0\]
*364 ringosc.dstage\[3\].id.trim\[1\]
*365 ringosc.dstage\[3\].id.ts
*366 ringosc.dstage\[4\].id.d0
*367 ringosc.dstage\[4\].id.d1
*368 ringosc.dstage\[4\].id.d2
*369 ringosc.dstage\[4\].id.out
*370 ringosc.dstage\[4\].id.trim\[0\]
*371 ringosc.dstage\[4\].id.trim\[1\]
*372 ringosc.dstage\[4\].id.ts
*373 ringosc.dstage\[5\].id.d0
*374 ringosc.dstage\[5\].id.d1
*375 ringosc.dstage\[5\].id.d2
*376 ringosc.dstage\[5\].id.out
*377 ringosc.dstage\[5\].id.trim\[0\]
*378 ringosc.dstage\[5\].id.trim\[1\]
*379 ringosc.dstage\[5\].id.ts
*380 ringosc.dstage\[6\].id.d0
*381 ringosc.dstage\[6\].id.d1
*382 ringosc.dstage\[6\].id.d2
*383 ringosc.dstage\[6\].id.out
*384 ringosc.dstage\[6\].id.trim\[0\]
*385 ringosc.dstage\[6\].id.trim\[1\]
*386 ringosc.dstage\[6\].id.ts
*387 ringosc.dstage\[7\].id.d0
*388 ringosc.dstage\[7\].id.d1
*389 ringosc.dstage\[7\].id.d2
*390 ringosc.dstage\[7\].id.out
*391 ringosc.dstage\[7\].id.trim\[0\]
*392 ringosc.dstage\[7\].id.trim\[1\]
*393 ringosc.dstage\[7\].id.ts
*394 ringosc.dstage\[8\].id.d0
*395 ringosc.dstage\[8\].id.d1
*396 ringosc.dstage\[8\].id.d2
*397 ringosc.dstage\[8\].id.out
*398 ringosc.dstage\[8\].id.trim\[0\]
*399 ringosc.dstage\[8\].id.trim\[1\]
*400 ringosc.dstage\[8\].id.ts
*401 ringosc.dstage\[9\].id.d0
*402 ringosc.dstage\[9\].id.d1
*403 ringosc.dstage\[9\].id.d2
*404 ringosc.dstage\[9\].id.trim\[0\]
*405 ringosc.dstage\[9\].id.trim\[1\]
*406 ringosc.dstage\[9\].id.ts
*407 ringosc.iss.ctrl0
*408 ringosc.iss.d0
*409 ringosc.iss.d1
*410 ringosc.iss.d2
*411 ringosc.iss.one
*412 ringosc.iss.reset
*413 ringosc.iss.trim\[0\]
*414 ringosc.iss.trim\[1\]

*D_NET *0 0.0012504025817800001
*CONN
*P clockp[0] O
*I _545_:X O
*CAP
0 *0:1 0.00016728583584
1 *0:2 0.0010831167459400002
2 _545_:X 0
*RES
0 *0:1 _545_:X 1.6428571428571428
1 *0:2 *0:3 12.294642857142856
2 _545_:X _545_:X 0
3 *0:1 *0:2 0
*END

*D_NET *1 0.00122899829118
*CONN
*P clockp[1] O
*I ringosc.ibufp11:Y O
*CAP
3 *1:1 0.00063291299678
4 *1:3 0.0005960852944
5 ringosc.ibufp11:Y 0
*RES
4 *1:1 *1:2 7.133928571428571
5 *1:3 ringosc.ibufp11:Y 6.160714285714286
6 *1:3 *1:2 0
7 ringosc.ibufp11:Y ringosc.ibufp11:Y 0
*END

*D_NET *2 0.030427264700599994
*CONN
*P dco I
*I _522_:A1 I
*I _519_:A1 I
*I _515_:A2 I
*I _514_:A1 I
*I _511_:A1 I
*I _509_:A I
*I _508_:A1 I
*I _503_:A1 I
*I _500_:A1 I
*I _458_:B1 I
*I _456_:A1 I
*I _455_:A1 I
*I _453_:A1 I
*I _449_:A1 I
*I _439_:A1 I
*I _438_:A1 I
*I _437_:B1 I
*I _435_:A1 I
*I _432_:A1 I
*I _404_:A2 I
*I _403_:A I
*I _278_:A I
*CAP
6 *2:1 0.00116256446638
7 _455_:A1 8.932229792e-05
8 *2:4 0.00012830406688
9 *2:5 0.00149359663488
10 _438_:A1 0.00016728583584
11 *2:6 0.00022243310784000002
12 _453_:A1 0.00032321291168
13 *2:8 0.00024891568132000004
14 _404_:A2 0.00024524937376
15 *2:12 5.029638022e-05
16 *2:13 0.00011806061236
17 *2:15 2.3813806740000006e-05
18 *2:16 0.00028423114272
19 *2:17 0.00026883499196000006
20 *2:14 0.00042105240893999997
21 *2:20 0.00044015821855999997
22 *2:21 0.00043429369568000003
23 *2:9 0.00016728583584
24 _514_:A1 0.00028423114272
25 _432_:A1 4.017137184e-05
26 *2:25 0.00028423114272
27 _522_:A1 0.00028423114272
28 *2:28 0.00088449744484
29 *2:30 0.0011820014316800001
30 *2:32 0.0009870925868799999
31 *2:33 4.017137184e-05
32 *2:34 0.00048725884264
33 *2:36 0.00044015821855999997
34 *2:37 4.017137184e-05
35 *2:38 0.00055710352544
36 *2:35 0.00019595053436
37 _508_:A1 6.898398368e-05
38 *2:41 0.0002062676048
39 _519_:A1 0.00012830406688
40 *2:44 0.0006752384351999999
41 *2:45 4.017137184e-05
42 *2:46 0.00082997590816
43 *2:47 0.00030188082828000006
44 *2:49 0.0010963580326800002
45 *2:29 0.0010698754592
46 *2:51 5.034052896000001e-05
47 *2:52 0.0004078111222
48 _449_:A1 4.017137184e-05
49 *2:55 0.00044015821855999997
50 *2:56 4.017137184e-05
51 _511_:A1 0.00024524937376
52 *2:57 0.0004078111222
53 *2:59 0.00114301966272
54 *2:61 0.00032321291168
55 *2:62 6.898398368e-05
56 *2:63 0.0009870925868799999
57 *2:64 4.017137184e-05
58 _439_:A1 0.00032321291168
59 *2:65 0.00055710352544
60 *2:67 8.932229792e-05
61 *2:68 0.00210269582492
62 *2:70 0.00168757482528
63 *2:72 4.017137184e-05
64 *2:73 0.00024524937376
65 *2:74 0.00022243310784000002
66 *2:76 0.0004599912761599999
67 *2:79 0.0005181217564799999
68 *2:80 0.00165249207576
69 *2:81 0.0019214654390400001
70 *2:3 0
71 _437_:B1 0
72 *2:7 0
73 *2:11 0
74 _503_:A1 0
75 *2:66 0
76 _500_:A1 0
77 *2:23 0
78 *2:24 0
79 *2:26 0
80 *2:27 0
81 _278_:A 0
82 *2:31 0
83 _456_:A1 0
84 _458_:B1 0
85 *2:39 0
86 *2:42 0
87 *2:82 0
88 _403_:A 0
89 _509_:A 0
90 _435_:A1 0
91 *2:60 0
92 _515_:A2 0
93 *2:71 0
94 *2:77 0
95 *2:86 0
*RES
8 *2:1 *2:2 13.20535714285714
9 _455_:A1 *2:3 0.8214285714285714
10 *2:4 _437_:B1 1.232142857142857
11 *2:5 *2:6 16.999999999999996
12 _438_:A1 *2:7 1.6428571428571428
13 *2:6 *2:8 2.4285714285714284
14 _453_:A1 *2:9 3.2857142857142856
15 *2:8 *2:10 2.7321428571428568
16 _404_:A2 *2:11 2.464285714285714
17 *2:12 *2:13 0.45535714285714285
18 *2:13 *2:14 1.232142857142857
19 *2:15 *2:14 0.15178571428571427
20 *2:16 _453_:A1 2.875
21 *2:17 *2:18 0.4107142857142857
22 *2:14 *2:17 4.705357142857142
23 *2:17 *2:19 2.4285714285714284
24 *2:20 _500_:A1 4.517857142857142
25 *2:21 *2:22 4.857142857142857
26 *2:9 *2:23 1.6428571428571428
27 _514_:A1 *2:24 2.875
28 _432_:A1 *2:25 0.30357142857142855
29 *2:25 *2:26 2.875
30 _522_:A1 *2:27 2.875
31 *2:28 *2:29 10.017857142857142
32 *2:30 _278_:A 0.30357142857142855
33 *2:30 *2:31 11.910714285714285
34 *2:32 _456_:A1 0.30357142857142855
35 *2:32 *2:33 9.857142857142856
36 *2:33 _522_:A1 0.30357142857142855
37 *2:34 *2:35 5.4642857142857135
38 *2:36 *2:37 4.517857142857142
39 *2:37 *2:30 0.30357142857142855
40 *2:38 *2:39 5.75
41 *2:35 *2:40 2.1249999999999996
42 _508_:A1 *2:41 0.6071428571428571
43 *2:41 *2:42 2.0535714285714284
44 _519_:A1 *2:43 1.232142857142857
45 *2:44 *2:43 0.30357142857142855
46 *2:44 *2:45 6.571428571428571
47 *2:45 *2:46 0.30357142857142855
48 *2:46 _456_:A1 8.625
49 *2:47 *2:48 3.339285714285714
50 *2:49 *2:5 12.44642857142857
51 *2:29 *2:50 12.14285714285714
52 *2:51 _509_:A 0.4107142857142857
53 *2:52 *2:53 4.553571428571428
54 _449_:A1 *2:54 0.30357142857142855
55 *2:55 *2:54 4.517857142857142
56 *2:56 *2:55 0.30357142857142855
57 _511_:A1 *2:56 2.464285714285714
58 *2:57 *2:58 4.553571428571428
59 *2:59 *2:60 11.5
60 *2:59 _449_:A1 0.30357142857142855
61 *2:61 _439_:A1 3.2857142857142856
62 *2:62 *2:61 0.6071428571428571
63 *2:63 *2:62 9.857142857142856
64 *2:63 *2:60 0.30357142857142855
65 *2:64 *2:65 0.30357142857142855
66 _439_:A1 *2:64 3.2857142857142856
67 *2:65 *2:66 5.75
68 *2:67 _515_:A2 0.8214285714285714
69 *2:68 *2:69 23.982142857142854
70 *2:70 *2:71 17.660714285714285
71 *2:72 *2:70 0.30357142857142855
72 *2:73 *2:72 2.464285714285714
73 *2:74 *2:75 2.4285714285714284
74 *2:76 *2:77 3.6964285714285707
75 *2:76 *2:78 0.9107142857142857
76 *2:79 *2:78 5.339285714285714
77 *2:80 *2:52 18.82142857142857
78 *2:81 *2:82 20.124999999999996
79 *2:79 *2:2 0
80 _455_:A1 _455_:A1 0
81 *2:3 *2:5 0
82 _437_:B1 _437_:B1 0
83 *2:4 *2:6 0
84 _438_:A1 _438_:A1 0
85 *2:7 *2:8 0
86 _453_:A1 _453_:A1 0
87 *2:9 *2:10 0
88 _404_:A2 _404_:A2 0
89 *2:11 *2:12 0
90 *2:16 *2:15 0
91 _503_:A1 _503_:A1 0
92 _503_:A1 *2:18 0
93 *2:66 *2:19 0
94 _500_:A1 _500_:A1 0
95 *2:20 *2:22 0
96 *2:23 *2:21 0
97 *2:24 *2:50 0
98 _514_:A1 _514_:A1 0
99 _432_:A1 _432_:A1 0
100 *2:26 *2:29 0
101 _522_:A1 _522_:A1 0
102 *2:27 *2:28 0
103 _278_:A _278_:A 0
104 *2:31 *2:83 0
105 _456_:A1 _456_:A1 0
106 _458_:B1 _458_:B1 0
107 _458_:B1 *2:35 0
108 *2:36 *2:34 0
109 *2:38 *2:49 0
110 *2:39 *2:40 0
111 _508_:A1 _508_:A1 0
112 *2:42 *2:84 0
113 _519_:A1 _519_:A1 0
114 *2:82 *2:48 0
115 _519_:A1 *2:47 0
116 _403_:A _403_:A 0
117 _403_:A *2:52 0
118 _509_:A _509_:A 0
119 *2:51 *2:53 0
120 _449_:A1 _449_:A1 0
121 _511_:A1 _511_:A1 0
122 _435_:A1 _435_:A1 0
123 _435_:A1 *2:57 0
124 *2:60 *2:58 0
125 _439_:A1 _439_:A1 0
126 _515_:A2 _515_:A2 0
127 *2:67 *2:69 0
128 *2:71 *2:68 0
129 *2:73 *2:75 0
130 *2:77 *2:74 0
131 *2:81 *2:85 0
132 *2:86 *2:80 0
*END

*D_NET *3 0.00138937791458
*CONN
*P div[0] I
*I _277_:A I
*CAP
96 *3:1 0.0008712561581000002
97 *3:3 0.0005181217564799999
98 _277_:A 0
*RES
133 *3:1 *3:2 9.866071428571429
134 *3:3 _277_:A 5.339285714285714
135 *3:3 *3:2 0
136 _277_:A _277_:A 0
*END

*D_NET *4 0.00251123095268
*CONN
*P div[1] I
*I _302_:A I
*I _301_:A I
*CAP
99 *4:1 0.00022243310784000002
100 *4:3 0.0008977387315800001
101 _301_:A 0.00044015821855999997
102 *4:6 0.0009509008947
103 _302_:A 0
104 *4:5 0
105 *4:4 0
*RES
137 *4:1 *4:2 2.4285714285714284
138 *4:3 *4:4 10.169642857142856
139 _301_:A *4:5 4.517857142857142
140 *4:6 *4:7 1.6935666666666669
141 _301_:A _301_:A 0
142 _302_:A _302_:A 0
143 _302_:A *4:1 0
144 _301_:A *4:2 0
145 *4:5 *4:3 0
146 *4:4 *4:7 0
*END

*D_NET *5 0.0032477316782199995
*CONN
*P div[2] I
*I _319_:A I
*I _316_:B1 I
*CAP
106 *5:1 0.00023626981952
107 *5:3 0.00035484597524
108 *5:5 0.0009469212150399999
109 *5:7 0.00014298538739999998
110 *5:9 0.00024524937376
111 *5:10 0.0013214599072599999
112 _316_:B1 0
113 *5:2 0
114 *5:6 0
115 _319_:A 0
*RES
147 *5:1 _316_:B1 0.6071428571428571
148 *5:1 *5:2 1.6428571428571428
149 *5:3 *5:4 3.946428571428571
150 *5:5 *5:6 9.857142857142856
151 *5:7 *5:8 1.5178571428571426
152 *5:9 *5:1 2.464285714285714
153 *5:10 *5:11 15.026785714285712
154 _316_:B1 _316_:B1 0
155 *5:2 *5:4 0
156 *5:5 *5:3 0
157 *5:6 *5:11 0
158 _319_:A _319_:A 0
159 _319_:A *5:7 0
160 *5:9 *5:8 0
*END

*D_NET *6 0.0037408561350400008
*CONN
*P div[3] I
*I _318_:A I
*I _316_:A1 I
*CAP
116 *6:1 0.0012268222761
117 *6:3 0.0011820014316800001
118 *6:5 0.00043429369568000003
119 *6:7 0.0008977387315800001
120 _318_:A 0
121 *6:4 0
122 _316_:A1 0
*RES
161 *6:1 *6:2 2.198033333333333
162 *6:3 _318_:A 0.30357142857142855
163 *6:3 *6:4 11.910714285714285
164 *6:5 *6:6 4.857142857142857
165 *6:7 *6:8 10.169642857142856
166 *6:7 *6:1 0
167 _318_:A _318_:A 0
168 *6:4 *6:8 0
169 _316_:A1 _316_:A1 0
170 _316_:A1 *6:6 0
171 _318_:A *6:5 0
*END

*D_NET *7 0.0010487884035
*CONN
*P div[4] I
*I _330_:A1 I
*I _325_:A I
*CAP
123 *7:1 2.3813806740000006e-05
124 *7:3 0.0006749795133
125 *7:5 0.00016728583584
126 *7:2 0.00018270924762000003
127 _330_:A1 0
128 _325_:A 0
*RES
172 *7:1 *7:2 0.15178571428571427
173 *7:3 *7:4 1.1891
174 *7:5 _325_:A 1.6428571428571428
175 *7:2 *7:6 1.9732142857142856
176 _330_:A1 _330_:A1 0
177 _330_:A1 *7:1 0
178 *7:2 *7:4 0
179 _325_:A _325_:A 0
180 *7:5 *7:6 0
*END

*D_NET *8 0.0060716529677800005
*CONN
*P enable I
*I _290_:A I
*I _289_:A I
*CAP
129 *8:1 0.00024524937376
130 *8:3 0.0012155296133400002
131 _289_:A 5.034052896000001e-05
132 *8:6 0.00039219689536000005
133 *8:8 0.0041683365563600005
134 *8:2 0
135 *8:5 0
136 _290_:A 0
137 *8:7 0
*RES
181 *8:1 *8:2 2.464285714285714
182 *8:3 *8:4 13.8125
183 _289_:A *8:5 0.4107142857142857
184 *8:6 _290_:A 0.6071428571428571
185 *8:6 *8:7 3.2857142857142856
186 *8:8 *8:9 47.660714285714285
187 *8:1 *8:3 0
188 *8:2 *8:9 0
189 _289_:A _289_:A 0
190 *8:5 *8:8 0
191 _290_:A _290_:A 0
192 *8:7 *8:10 0
*END

*D_NET *9 0.00504183765214
*CONN
*P ext_trim[0] I
*I _404_:A1 I
*CAP
138 *9:1 0.0004078111222
139 *9:3 0.0015316477494400002
140 *9:5 0.0020192620345600002
141 *9:6 0.0010831167459400002
142 *9:8 0
143 _404_:A1 0
*RES
193 *9:1 *9:2 4.553571428571428
194 *9:3 *9:4 16.017857142857142
195 *9:5 *9:4 0.9107142857142857
196 *9:6 *9:7 12.294642857142856
197 *9:5 *9:8 20.124999999999996
198 *9:8 *9:2 0
199 _404_:A1 _404_:A1 0
200 _404_:A1 *9:1 0
201 *9:3 *9:6 0
*END

*D_NET *10 0.0017535714779000002
*CONN
*P ext_trim[10] I
*I _453_:A2 I
*CAP
144 *10:1 0.00016728583584
145 *10:2 0.0015862856420600002
146 _453_:A2 0
*RES
202 *10:1 _453_:A2 1.6428571428571428
203 *10:2 *10:3 18.0625
204 _453_:A2 _453_:A2 0
205 *10:1 *10:2 0
*END

*D_NET *11 0.00654549554384
*CONN
*P ext_trim[11] I
*I _455_:A2 I
*CAP
147 *11:1 0.0004803295904
148 *11:4 9.002024044000002e-05
149 *11:6 0.00055710352544
150 _455_:A2 6.898398368e-05
151 *11:8 0.00012974410066
152 *11:10 8.932229792e-05
153 *11:12 0.003666665488
154 *11:13 0.0014633263173
155 *11:3 0
156 *11:9 0
*RES
206 *11:1 *11:2 0.30357142857142855
207 *11:1 *11:3 4.517857142857142
208 *11:4 *11:5 0.9107142857142857
209 *11:6 *11:7 5.75
210 _455_:A2 *11:7 0.6071428571428571
211 *11:8 *11:9 1.3660714285714284
212 *11:10 *11:11 0.8214285714285714
213 *11:12 *11:11 0.6071428571428571
214 *11:13 *11:14 2.6304333333333334
215 *11:12 *11:2 37.785714285714285
216 *11:3 *11:5 0
217 *11:6 *11:4 0
218 _455_:A2 _455_:A2 0
219 *11:9 *11:14 0
220 *11:10 *11:8 0
*END

*D_NET *12 0.00307346991484
*CONN
*P ext_trim[12] I
*I _456_:A2 I
*CAP
157 _456_:A2 5.034052896000001e-05
158 *12:2 0.00155980306858
159 *12:4 0.0014633263173
160 *12:1 0
*RES
221 _456_:A2 *12:1 0.4107142857142857
222 *12:2 *12:3 17.75892857142857
223 *12:4 *12:5 2.6304333333333334
224 _456_:A2 _456_:A2 0
225 *12:1 *12:3 0
226 *12:2 *12:4 0
*END

*D_NET *13 0.00564367268594
*CONN
*P ext_trim[13] I
*I _458_:B2 I
*CAP
161 *13:1 6.353766696000002e-05
162 *13:2 4.640188412000001e-05
163 *13:4 8.223124824000001e-05
164 *13:5 0.0022748325525400004
165 *13:7 0.00012830406688
166 *13:9 0.00032836340175999997
167 *13:11 0.0005582931283199999
168 _458_:B2 0.000985902984
169 *13:3 0.0011758057531200002
170 *13:8 0
171 *13:12 0
*RES
227 *13:1 *13:2 0.6071428571428571
228 *13:2 *13:3 0.4107142857142857
229 *13:4 *13:5 0.8214285714285714
230 *13:5 *13:6 25.955357142857142
231 *13:7 *13:8 1.232142857142857
232 *13:9 *13:10 3.642857142857143
233 *13:11 *13:12 5.339285714285714
234 *13:11 *13:13 0.30357142857142855
235 _458_:B2 *13:13 10.267857142857142
236 *13:3 *13:4 13.357142857142856
237 *13:7 *13:6 0
238 *13:8 *13:9 0
239 *13:12 *13:10 0
240 _458_:B2 _458_:B2 0
*END

*D_NET *14 0.000858914841
*CONN
*P ext_trim[14] I
*I _282_:A I
*CAP
172 *14:1 0.0005173101524999999
173 *14:3 0.00034160468850000003
174 *14:4 0
175 _282_:A 0
*RES
241 *14:1 *14:2 0.9008333333333334
242 *14:3 *14:4 3.7946428571428568
243 *14:4 *14:2 0
244 _282_:A _282_:A 0
245 _282_:A *14:3 0
*END

*D_NET *15 0.00673432981302
*CONN
*P ext_trim[15] I
*I _283_:A I
*CAP
176 *15:1 0.00048725884264
177 *15:2 0.00015388997648
178 *15:4 0.0027400825872000005
179 *15:6 0.00271179501496
180 *15:8 0.00016728583584
181 *15:3 0.00047401755590000005
182 *15:5 0
183 _283_:A 0
*RES
246 *15:1 *15:2 5.4642857142857135
247 *15:2 *15:3 1.6428571428571428
248 *15:4 *15:5 28.75
249 *15:6 *15:7 30.96428571428571
250 *15:8 _283_:A 1.6428571428571428
251 *15:3 *15:9 5.3125
252 *15:4 *15:9 0
253 *15:5 *15:6 0
254 *15:8 *15:7 0
255 _283_:A _283_:A 0
*END

*D_NET *16 0.00114532383992
*CONN
*P ext_trim[16] I
*I _284_:A I
*CAP
184 *16:1 8.932229792e-05
185 *16:2 0.00034160468850000003
186 *16:4 0.0007143968535
187 _284_:A 0
188 *16:3 0
*RES
256 *16:1 _284_:A 0.8214285714285714
257 *16:2 *16:3 3.7946428571428568
258 *16:4 *16:5 1.2611666666666668
259 _284_:A _284_:A 0
260 *16:1 *16:2 0
261 *16:3 *16:4 0
*END

*D_NET *17 0.0006735368266399999
*CONN
*P ext_trim[17] I
*I _285_:A I
*CAP
189 *17:1 0.0005173101524999999
190 *17:3 0.00015622667414000004
191 *17:4 0
192 _285_:A 0
*RES
262 *17:1 *17:2 0.9008333333333334
263 *17:3 *17:4 1.669642857142857
264 *17:4 *17:2 0
265 _285_:A _285_:A 0
266 _285_:A *17:3 0
*END

*D_NET *18 0.00253828513998
*CONN
*P ext_trim[18] I
*I _500_:A2 I
*CAP
193 _500_:A2 0.0013757206736000002
194 *18:2 0.00116256446638
195 *18:1 0
*RES
267 _500_:A2 *18:1 14.375
268 *18:2 *18:3 13.20535714285714
269 *18:1 *18:2 0
270 _500_:A2 _500_:A2 0
*END

*D_NET *19 0.0036916802169800005
*CONN
*P ext_trim[19] I
*I _503_:A2 I
*CAP
196 *19:1 0.0011360818929000002
197 *19:3 0.0006305640764
198 *19:6 0.0012599649696
199 *19:7 6.898398368e-05
200 *19:8 0.0005960852944
201 *19:4 0
202 _503_:A2 0
*RES
271 *19:1 *19:2 12.901785714285712
272 *19:3 *19:4 48.79999999999999
273 *19:3 *19:5 5.75
274 *19:6 *19:5 0.30357142857142855
275 *19:6 *19:7 12.732142857142856
276 *19:7 _503_:A2 0.6071428571428571
277 *19:8 *19:4 6.160714285714286
278 *19:8 *19:1 0
279 *19:4 *19:4 0
280 *19:3 *19:3 0
281 _503_:A2 _503_:A2 0
*END

*D_NET *20 0.0010634441643599998
*CONN
*P ext_trim[1] I
*I _279_:A I
*CAP
203 *20:1 0.00026215696806
204 *20:3 0.00024138877109999995
205 *20:4 0.0001411316232
206 *20:5 0.00041876680199999993
207 _279_:A 0
208 *20:2 0
*RES
282 *20:1 *20:2 2.883928571428571
283 *20:3 *20:4 0.39636666666666664
284 *20:4 *20:5 0.21306666666666668
285 *20:5 *20:6 0.7206666666666666
286 _279_:A _279_:A 0
287 _279_:A *20:1 0
288 *20:2 *20:3 0
*END

*D_NET *21 0.005209781060380001
*CONN
*P ext_trim[20] I
*I _508_:A2 I
*CAP
209 *21:1 0.00022243310784000002
210 *21:2 8.223124824000001e-05
211 *21:4 0.00334081351564
212 *21:7 0.00047680108369999995
213 *21:9 0.00040117644959999997
214 _508_:A2 4.017137184e-05
215 *21:3 0.00064615428352
216 *21:10 0
*RES
289 *21:1 *21:2 2.4285714285714284
290 *21:2 *21:3 0.8214285714285714
291 *21:4 *21:5 0.4107142857142857
292 *21:4 *21:6 37.64285714285714
293 *21:7 *21:6 0.8214285714285714
294 *21:7 *21:8 4.4017857142857135
295 *21:9 *21:10 4.107142857142857
296 _508_:A2 *21:9 0.30357142857142855
297 *21:3 *21:5 7.285714285714286
298 *21:10 *21:8 0
299 _508_:A2 _508_:A2 0
*END

*D_NET *22 0.0017696289818
*CONN
*P ext_trim[21] I
*I _511_:A2 I
*CAP
217 *22:1 2.3813806740000006e-05
218 *22:3 0.00044015821855999997
219 *22:4 0.0013056569565
220 *22:2 0
221 _511_:A2 0
*RES
300 *22:1 *22:2 0.15178571428571427
301 *22:3 _511_:A2 4.517857142857142
302 *22:4 *22:5 2.342166666666667
303 *22:2 *22:5 0
304 *22:3 *22:1 0
305 _511_:A2 _511_:A2 0
*END

*D_NET *23 0.00073943674032
*CONN
*P ext_trim[22] I
*I _514_:A2 I
*CAP
222 *23:1 0.00018270924762000003
223 *23:3 0.0005567274927
224 _514_:A2 0
*RES
306 *23:1 *23:2 1.9732142857142856
307 *23:3 *23:4 0.9729000000000001
308 _514_:A2 _514_:A2 0
309 _514_:A2 *23:2 0
310 *23:1 *23:3 0
*END

*D_NET *24 0.00475475734128
*CONN
*P ext_trim[23] I
*I _515_:B2 I
*CAP
225 *24:1 5.029638022e-05
226 *24:3 0.00199942897696
227 *24:5 0.0012022883266000002
228 *24:7 0.0015027436575
229 *24:4 0
230 _515_:B2 0
*RES
311 *24:1 *24:2 0.45535714285714285
312 *24:3 *24:4 20.94642857142857
313 *24:5 *24:6 13.660714285714285
314 *24:7 *24:8 2.7025
315 *24:1 *24:8 0
316 *24:3 *24:2 0
317 *24:4 *24:5 0
318 _515_:B2 _515_:B2 0
319 _515_:B2 *24:6 0
*END

*D_NET *25 0.00464788717734
*CONN
*P ext_trim[24] I
*I _519_:A2 I
*CAP
231 *25:1 0.0018643526636000001
232 _519_:A2 5.034052896000001e-05
233 *25:4 0.00116256446638
234 *25:6 0.0015706295183999998
235 *25:7 0
236 *25:3 0
*RES
320 *25:1 *25:2 21.25
321 _519_:A2 *25:3 0.4107142857142857
322 *25:4 *25:5 13.20535714285714
323 *25:6 *25:7 16.428571428571427
324 *25:7 *25:1 0
325 *25:3 *25:2 0
326 _519_:A2 _519_:A2 0
327 *25:6 *25:5 0
*END

*D_NET *26 0.00130273509828
*CONN
*P ext_trim[25] I
*I _522_:A2 I
*CAP
237 *26:1 0.00016728583584
238 *26:2 0.00042105240893999997
239 *26:4 0.0007143968535
240 _522_:A2 0
*RES
328 *26:1 _522_:A2 1.6428571428571428
329 *26:2 *26:3 4.705357142857142
330 *26:4 *26:5 1.2611666666666668
331 _522_:A2 _522_:A2 0
332 *26:1 *26:3 0
333 *26:2 *26:4 0
*END

*D_NET *27 0.00074992435784
*CONN
*P ext_trim[2] I
*I _432_:A2 I
*CAP
241 _432_:A2 8.932229792e-05
242 *27:2 0.00018270924762000003
243 *27:4 0.0004778928123
244 *27:1 0
*RES
334 _432_:A2 *27:1 0.8214285714285714
335 *27:2 *27:3 1.9732142857142856
336 *27:4 *27:5 0.8287666666666667
337 _432_:A2 _432_:A2 0
338 *27:1 *27:3 0
339 *27:2 *27:4 0
*END

*D_NET *28 0.0039847685594199996
*CONN
*P ext_trim[3] I
*I _435_:A2 I
*CAP
245 *28:1 0.0013214599072599999
246 _435_:A2 4.017137184e-05
247 *28:4 0.00262313728032
*RES
340 *28:1 *28:2 15.026785714285712
341 _435_:A2 *28:3 0.30357142857142855
342 *28:4 *28:3 27.51785714285714
343 *28:4 *28:1 0
344 _435_:A2 _435_:A2 0
*END

*D_NET *29 0.0022361937331800003
*CONN
*P ext_trim[4] I
*I _437_:B2 I
*CAP
248 *29:1 4.640188412000001e-05
249 _437_:B2 0.0002062676048
250 *29:2 0.00198352424426
251 *29:3 0
*RES
345 *29:1 *29:2 0.4107142857142857
346 _437_:B2 *29:3 2.0535714285714284
347 *29:2 *29:4 22.616071428571423
348 *29:3 *29:1 0
349 _437_:B2 _437_:B2 0
*END

*D_NET *30 0.007252942920700001
*CONN
*P ext_trim[5] I
*I _438_:A2 I
*CAP
252 _438_:A2 8.932229792e-05
253 *30:1 0.00032321291168
254 *30:3 0.00081829101114
255 *30:5 0.006022116699960001
256 *30:2 0
*RES
350 _438_:A2 _438_:A2 0.8214285714285714
351 *30:1 *30:2 3.2857142857142856
352 *30:3 *30:4 9.25892857142857
353 *30:5 *30:6 68.91071428571429
354 _438_:A2 *30:6 0
355 _438_:A2 _438_:A2 0
356 *30:1 *30:4 0
357 *30:2 *30:5 0
*END

*D_NET *31 0.00113048890986
*CONN
*P ext_trim[6] I
*I _439_:A2 I
*CAP
257 _439_:A2 0.0002062676048
258 *31:2 0.0009242213050600002
259 *31:1 0
*RES
358 _439_:A2 *31:1 2.0535714285714284
359 *31:2 *31:3 10.473214285714285
360 *31:1 *31:2 0
361 _439_:A2 _439_:A2 0
*END

*D_NET *32 0.00157624011146
*CONN
*P ext_trim[7] I
*I _280_:A I
*CAP
260 *32:1 0.00044015821855999997
261 *32:2 0.0011360818929000002
262 _280_:A 0
*RES
362 *32:1 _280_:A 4.517857142857142
363 *32:2 *32:3 12.901785714285712
364 *32:1 *32:2 0
365 _280_:A _280_:A 0
*END

*D_NET *33 0.0010525253719400002
*CONN
*P ext_trim[8] I
*I _449_:A2 I
*CAP
263 _449_:A2 0.00012830406688
264 *33:2 0.0009242213050600002
265 *33:1 0
*RES
366 _449_:A2 *33:1 1.232142857142857
367 *33:2 *33:3 10.473214285714285
368 *33:1 *33:2 0
369 _449_:A2 _449_:A2 0
*END

*D_NET *34 0.0014169791570399998
*CONN
*P ext_trim[9] I
*I _281_:A I
*CAP
266 *34:1 8.932229792e-05
267 *34:2 0.00044753498242
268 *34:4 0.0003202234515
269 *34:5 0.0001411316232
270 *34:6 0.00041876680199999993
271 _281_:A 0
272 *34:3 0
*RES
370 *34:1 _281_:A 0.8214285714285714
371 *34:2 *34:3 5.008928571428571
372 *34:4 *34:5 0.5405000000000001
373 *34:5 *34:6 0.21306666666666668
374 *34:6 *34:7 0.7206666666666666
375 _281_:A _281_:A 0
376 *34:1 *34:2 0
377 *34:3 *34:4 0
*END

*D_NET *35 0.0034929584233
*CONN
*P osc I
*I _546_:D I
*CAP
273 *35:1 4.017137184e-05
274 *35:2 0.00040117644959999997
275 *35:3 0.00081829101114
276 *35:5 0.00223331959072
277 _546_:D 0
*RES
378 *35:1 *35:2 0.30357142857142855
379 *35:2 _546_:D 4.107142857142857
380 *35:3 *35:4 9.25892857142857
381 *35:5 *35:1 23.41071428571428
382 _546_:D _546_:D 0
383 *35:5 *35:4 0
*END

*D_NET *36 0.00517805175222
*CONN
*P resetb I
*I _290_:B I
*I _289_:B I
*CAP
278 *36:1 0.0019967655310000002
279 *36:3 0.00168757482528
280 *36:5 0.00016946796088000002
281 *36:2 8.223124824000001e-05
282 *36:7 0.00124201218682
283 _289_:B 0
284 *36:4 0
285 _290_:B 0
*RES
384 *36:1 *36:2 22.767857142857142
385 *36:3 *36:4 17.660714285714285
386 *36:5 *36:6 1.8214285714285714
387 *36:2 *36:5 0.8214285714285714
388 *36:7 *36:8 14.116071428571427
389 _289_:B _289_:B 0
390 _289_:B *36:2 0
391 *36:4 *36:1 0
392 *36:3 *36:8 0
393 _290_:B _290_:B 0
394 _290_:B *36:6 0
*END

*D_NET *37 0.00020582511184000002
*CONN
*I _546_:RESET_B I
*I _543_:X O
*CAP
286 _546_:RESET_B 8.932229792e-05
287 *37:2 0.00011650281392
288 _543_:X 0
289 *37:1 0
*RES
395 _546_:RESET_B *37:1 0.8214285714285714
396 *37:2 *37:3 1.2142857142857142
397 _543_:X _543_:X 0
398 _543_:X *37:2 0
399 *37:1 *37:3 0
*END

*D_NET *38 0.00024629106332
*CONN
*I _547_:RESET_B I
*I _542_:X O
*CAP
290 *38:1 5.034052896000001e-05
291 *38:2 0.00019595053436
292 _542_:X 0
293 _547_:RESET_B 0
*RES
400 *38:1 _542_:X 0.4107142857142857
401 *38:2 *38:3 2.1249999999999996
402 _542_:X _542_:X 0
403 *38:1 *38:2 0
404 _547_:RESET_B *38:3 0
*END

*D_NET *39 0.00024629106332
*CONN
*I _548_:RESET_B I
*I _541_:X O
*CAP
294 *39:1 0.00019595053436
295 _548_:RESET_B 5.034052896000001e-05
296 _541_:X 0
297 *39:3 0
*RES
405 *39:1 *39:2 2.1249999999999996
406 _548_:RESET_B *39:3 0.4107142857142857
407 _541_:X _541_:X 0
408 _541_:X *39:1 0
409 *39:3 *39:2 0
*END

*D_NET *40 0.0005972748972799999
*CONN
*I _549_:RESET_B I
*I _540_:X O
*CAP
298 _540_:X 0.00055710352544
299 *40:1 4.017137184e-05
*RES
410 _540_:X *40:1 5.75
411 *40:1 _549_:RESET_B 0.30357142857142855
412 _540_:X _540_:X 0
*END

*D_NET *41 0.0004536991036
*CONN
*I _550_:RESET_B I
*I _539_:X O
*CAP
300 *41:1 0.00016946796088000002
301 *41:3 0.00028423114272
302 _550_:RESET_B 0
303 _539_:X 0
*RES
413 *41:1 *41:2 1.8214285714285714
414 *41:3 _539_:X 2.875
415 _550_:RESET_B *41:1 0
416 *41:3 *41:2 0
417 _539_:X _539_:X 0
*END

*D_NET *42 0.00029777202776
*CONN