*SPEF "IEEE 1481-1998"
*DESIGN "digital_pll"
*DATE "Tue Nov 03 13:59:56 2020"
*VENDOR "AUC CSCE Department"
*PROGRAM "SPEF Extractor"
*VERSION "1.0"
*DESIGN_FLOW "PIN_CAP NONE"
*DIVIDER /
*DELIMITER :
*BUS_DELIMITER []
*T_UNIT 1.00000 NS
*C_UNIT 1.00000 PF
*R_UNIT 1.00000 OHM
*L_UNIT 1.00000 HENRY


*NAME_MAP
*0 clockp[0]
*1 clockp[1]
*2 dco
*3 div[0]
*4 div[1]
*5 div[2]
*6 div[3]
*7 div[4]
*8 enable
*9 ext_trim[0]
*10 ext_trim[10]
*11 ext_trim[11]
*12 ext_trim[12]
*13 ext_trim[13]
*14 ext_trim[14]
*15 ext_trim[15]
*16 ext_trim[16]
*17 ext_trim[17]
*18 ext_trim[18]
*19 ext_trim[19]
*20 ext_trim[1]
*21 ext_trim[20]
*22 ext_trim[21]
*23 ext_trim[22]
*24 ext_trim[23]
*25 ext_trim[24]
*26 ext_trim[25]
*27 ext_trim[2]
*28 ext_trim[3]
*29 ext_trim[4]
*30 ext_trim[5]
*31 ext_trim[6]
*32 ext_trim[7]
*33 ext_trim[8]
*34 ext_trim[9]
*35 osc
*36 resetb
*37 _000_
*38 _001_
*39 _002_
*40 _003_
*41 _004_
*42 _005_
*43 _006_
*44 _007_
*45 _008_
*46 _009_
*47 _010_
*48 _011_
*49 _012_
*50 _013_
*51 _014_
*52 _015_
*53 _016_
*54 _017_
*55 _018_
*56 _019_
*57 _020_
*58 _021_
*59 _022_
*60 _023_
*61 _024_
*62 _025_
*63 _026_
*64 _027_
*65 _028_
*66 _029_
*67 _030_
*68 _031_
*69 _032_
*70 _033_
*71 _034_
*72 _035_
*73 _036_
*74 _037_
*75 _038_
*76 _039_
*77 _040_
*78 _041_
*79 _042_
*80 _043_
*81 _044_
*82 _045_
*83 _046_
*84 _047_
*85 _048_
*86 _049_
*87 _050_
*88 _051_
*89 _052_
*90 _053_
*91 _054_
*92 _055_
*93 _056_
*94 _057_
*95 _058_
*96 _059_
*97 _060_
*98 _061_
*99 _062_
*100 _063_
*101 _064_
*102 _065_
*103 _066_
*104 _067_
*105 _068_
*106 _069_
*107 _070_
*108 _071_
*109 _072_
*110 _073_
*111 _074_
*112 _075_
*113 _076_
*114 _077_
*115 _078_
*116 _079_
*117 _080_
*118 _081_
*119 _082_
*120 _083_
*121 _084_
*122 _085_
*123 _086_
*124 _087_
*125 _088_
*126 _089_
*127 _090_
*128 _091_
*129 _092_
*130 _093_
*131 _094_
*132 _095_
*133 _096_
*134 _097_
*135 _098_
*136 _099_
*137 _100_
*138 _101_
*139 _102_
*140 _103_
*141 _104_
*142 _105_
*143 _106_
*144 _107_
*145 _108_
*146 _109_
*147 _110_
*148 _111_
*149 _112_
*150 _113_
*151 _114_
*152 _115_
*153 _116_
*154 _117_
*155 _118_
*156 _119_
*157 _120_
*158 _121_
*159 _122_
*160 _123_
*161 _124_
*162 _125_
*163 _126_
*164 _127_
*165 _128_
*166 _129_
*167 _130_
*168 _131_
*169 _132_
*170 _133_
*171 _134_
*172 _135_
*173 _136_
*174 _137_
*175 _138_
*176 _139_
*177 _140_
*178 _141_
*179 _142_
*180 _143_
*181 _144_
*182 _145_
*183 _146_
*184 _147_
*185 _148_
*186 _149_
*187 _150_
*188 _151_
*189 _152_
*190 _153_
*191 _154_
*192 _155_
*193 _156_
*194 _157_
*195 _158_
*196 _159_
*197 _160_
*198 _161_
*199 _162_
*200 _163_
*201 _164_
*202 _165_
*203 _166_
*204 _167_
*205 _168_
*206 _169_
*207 _170_
*208 _171_
*209 _172_
*210 _173_
*211 _174_
*212 _175_
*213 _176_
*214 _177_
*215 _178_
*216 _179_
*217 _180_
*218 _181_
*219 _182_
*220 _183_
*221 _184_
*222 _185_
*223 _186_
*224 _187_
*225 _188_
*226 _189_
*227 _190_
*228 _191_
*229 _192_
*230 _193_
*231 _194_
*232 _195_
*233 _196_
*234 _197_
*235 _198_
*236 _199_
*237 _200_
*238 _201_
*239 _202_
*240 _203_
*241 _204_
*242 _205_
*243 _206_
*244 _207_
*245 _208_
*246 _209_
*247 _210_
*248 _211_
*249 _212_
*250 _213_
*251 _214_
*252 _215_
*253 _216_
*254 _217_
*255 _218_
*256 _219_
*257 _220_
*258 _221_
*259 _222_
*260 _223_
*261 _224_
*262 _225_
*263 _226_
*264 _227_
*265 _228_
*266 _229_
*267 _230_
*268 _231_
*269 _232_
*270 _233_
*271 _234_
*272 _235_
*273 _236_
*274 _237_
*275 _238_
*276 _239_
*277 _240_
*278 _241_
*279 _242_
*280 pll_control.clock
*281 pll_control.count0\[0\]
*282 pll_control.count0\[1\]
*283 pll_control.count0\[2\]
*284 pll_control.count0\[3\]
*285 pll_control.count0\[4\]
*286 pll_control.count1\[0\]
*287 pll_control.count1\[1\]
*288 pll_control.count1\[2\]
*289 pll_control.count1\[3\]
*290 pll_control.count1\[4\]
*291 pll_control.oscbuf\[0\]
*292 pll_control.oscbuf\[1\]
*293 pll_control.oscbuf\[2\]
*294 pll_control.prep\[0\]
*295 pll_control.prep\[1\]
*296 pll_control.prep\[2\]
*297 pll_control.tint\[0\]
*298 pll_control.tint\[1\]
*299 pll_control.tint\[2\]
*300 pll_control.tint\[3\]
*301 pll_control.tint\[4\]
*302 pll_control.tval\[0\]
*303 pll_control.tval\[1\]
*304 ringosc.c\[0\]
*305 ringosc.c\[1\]
*306 ringosc.dstage\[0\].id.d0
*307 ringosc.dstage\[0\].id.d1
*308 ringosc.dstage\[0\].id.d2
*309 ringosc.dstage\[0\].id.in
*310 ringosc.dstage\[0\].id.out
*311 ringosc.dstage\[0\].id.trim\[0\]
*312 ringosc.dstage\[0\].id.trim\[1\]
*313 ringosc.dstage\[0\].id.ts
*314 ringosc.dstage\[10\].id.d0
*315 ringosc.dstage\[10\].id.d1
*316 ringosc.dstage\[10\].id.d2
*317 ringosc.dstage\[10\].id.in
*318 ringosc.dstage\[10\].id.out
*319 ringosc.dstage\[10\].id.trim\[0\]
*320 ringosc.dstage\[10\].id.trim\[1\]
*321 ringosc.dstage\[10\].id.ts
*322 ringosc.dstage\[11\].id.d0
*323 ringosc.dstage\[11\].id.d1
*324 ringosc.dstage\[11\].id.d2
*325 ringosc.dstage\[11\].id.out
*326 ringosc.dstage\[11\].id.trim\[0\]
*327 ringosc.dstage\[11\].id.trim\[1\]
*328 ringosc.dstage\[11\].id.ts
*329 ringosc.dstage\[1\].id.d0
*330 ringosc.dstage\[1\].id.d1
*331 ringosc.dstage\[1\].id.d2
*332 ringosc.dstage\[1\].id.out
*333 ringosc.dstage\[1\].id.trim\[0\]
*334 ringosc.dstage\[1\].id.trim\[1\]
*335 ringosc.dstage\[1\].id.ts
*336 ringosc.dstage\[2\].id.d0
*337 ringosc.dstage\[2\].id.d1
*338 ringosc.dstage\[2\].id.d2
*339 ringosc.dstage\[2\].id.out
*340 ringosc.dstage\[2\].id.trim\[0\]
*341 ringosc.dstage\[2\].id.trim\[1\]
*342 ringosc.dstage\[2\].id.ts
*343 ringosc.dstage\[3\].id.d0
*344 ringosc.dstage\[3\].id.d1
*345 ringosc.dstage\[3\].id.d2
*346 ringosc.dstage\[3\].id.out
*347 ringosc.dstage\[3\].id.trim\[0\]
*348 ringosc.dstage\[3\].id.trim\[1\]
*349 ringosc.dstage\[3\].id.ts
*350 ringosc.dstage\[4\].id.d0
*351 ringosc.dstage\[4\].id.d1
*352 ringosc.dstage\[4\].id.d2
*353 ringosc.dstage\[4\].id.out
*354 ringosc.dstage\[4\].id.trim\[0\]
*355 ringosc.dstage\[4\].id.trim\[1\]
*356 ringosc.dstage\[4\].id.ts
*357 ringosc.dstage\[5\].id.d0
*358 ringosc.dstage\[5\].id.d1
*359 ringosc.dstage\[5\].id.d2
*360 ringosc.dstage\[5\].id.out
*361 ringosc.dstage\[5\].id.trim\[0\]
*362 ringosc.dstage\[5\].id.trim\[1\]
*363 ringosc.dstage\[5\].id.ts
*364 ringosc.dstage\[6\].id.d0
*365 ringosc.dstage\[6\].id.d1
*366 ringosc.dstage\[6\].id.d2
*367 ringosc.dstage\[6\].id.out
*368 ringosc.dstage\[6\].id.trim\[0\]
*369 ringosc.dstage\[6\].id.trim\[1\]
*370 ringosc.dstage\[6\].id.ts
*371 ringosc.dstage\[7\].id.d0
*372 ringosc.dstage\[7\].id.d1
*373 ringosc.dstage\[7\].id.d2
*374 ringosc.dstage\[7\].id.out
*375 ringosc.dstage\[7\].id.trim\[0\]
*376 ringosc.dstage\[7\].id.trim\[1\]
*377 ringosc.dstage\[7\].id.ts
*378 ringosc.dstage\[8\].id.d0
*379 ringosc.dstage\[8\].id.d1
*380 ringosc.dstage\[8\].id.d2
*381 ringosc.dstage\[8\].id.out
*382 ringosc.dstage\[8\].id.trim\[0\]
*383 ringosc.dstage\[8\].id.trim\[1\]
*384 ringosc.dstage\[8\].id.ts
*385 ringosc.dstage\[9\].id.d0
*386 ringosc.dstage\[9\].id.d1
*387 ringosc.dstage\[9\].id.d2
*388 ringosc.dstage\[9\].id.trim\[0\]
*389 ringosc.dstage\[9\].id.trim\[1\]
*390 ringosc.dstage\[9\].id.ts
*391 ringosc.iss.ctrl0
*392 ringosc.iss.d0
*393 ringosc.iss.d1
*394 ringosc.iss.d2
*395 ringosc.iss.one
*396 ringosc.iss.reset
*397 ringosc.iss.trim\[0\]
*398 ringosc.iss.trim\[1\]

*D_NET *0 4.9113299999999996e-05
*CONN
*P clockp[0] O
*I _513_:X O
*CAP
0 _513_:X 1.70428e-05
1 *0:2 3.20705e-05
2 *0:1 0
*RES
0 _513_:X *0:1 2.0535714285714284
1 *0:2 *0:3 11.687499999999998
2 _513_:X _513_:X 0
3 *0:1 *0:2 0
*END

*D_NET *1 8.001518e-05
*CONN
*P clockp[1] O
*I ringosc.ibufp11:Y O
*CAP
3 *1:1 1.1662e-05
4 *1:3 2.15355e-05
5 *1:4 4.681768e-05
6 ringosc.ibufp11:Y 0
*RES
4 *1:1 *1:2 4.249999999999999
5 *1:3 *1:2 0.4107142857142857
6 *1:4 ringosc.ibufp11:Y 5.75
7 *1:3 *1:5 7.437499999999999
8 *1:4 *1:5 0
9 ringosc.ibufp11:Y ringosc.ibufp11:Y 0
*END

*D_NET *2 0.0020829805999999997
*CONN
*P dco I
*I _490_:A1 I
*I _487_:B1 I
*I _484_:A2 I
*I _483_:A1 I
*I _480_:A1 I
*I _476_:A1 I
*I _470_:A1 I
*I _467_:A1 I
*I _463_:A1 I
*I _455_:A1 I
*I _449_:A1 I
*I _444_:A1 I
*I _427_:B1 I
*I _425_:A1 I
*I _424_:A1 I
*I _422_:A1 I
*I _421_:A1 I
*I _419_:A1 I
*I _418_:A1 I
*I _409_:A1 I
*I _408_:A1 I
*I _407_:B1 I
*I _405_:A1 I
*I _402_:A1 I
*I _392_:A1 I
*I _374_:A2 I
*I _373_:A I
*I _262_:A I
*CAP
7 *2:1 1.373448e-05
8 *2:2 1.666e-06
9 *2:4 2.035112e-05
10 *2:5 2.94648e-06
11 *2:6 1.0426159999999999e-05
12 *2:7 1.2495e-05
13 *2:9 5.831e-06
14 *2:11 4.020104e-05
15 *2:13 2.94648e-06
16 _424_:A1 1.70428e-05
17 *2:12 5.0126e-05
18 *2:15 1.4161e-05
19 _374_:A2 1.70428e-05
20 *2:18 3.9839199999999996e-05
21 _444_:A1 2.035112e-05
22 *2:20 4.165e-07
23 *2:22 1.127e-06
24 *2:23 3.8095200000000007e-06
25 *2:24 1.4161e-05
26 *2:25 1.7492999999999997e-05
27 *2:26 1.4993999999999999e-05
28 *2:28 6.005096e-05
29 *2:29 5.39176e-06
30 _487_:B1 1.0064320000000001e-05
31 *2:31 3.4152999999999996e-05
32 *2:33 8.982584e-05
33 *2:34 2.94648e-06
34 *2:35 7.117840000000001e-06
35 _425_:A1 2.3659440000000002e-05
36 *2:38 9.996e-06
37 *2:39 4.6648e-05
38 *2:41 0.00011629240000000002
39 *2:43 5.03965e-05
40 *2:45 2.254e-06
41 *2:46 4.3316e-05
42 *2:47 4.508e-06
43 *2:48 1.2495e-06
44 *2:49 0.00018245880000000004
45 *2:51 6.664e-06
46 *2:53 0.00010305912000000001
47 _262_:A 1.3372639999999999e-05
48 *2:56 7.117840000000001e-06
49 *2:57 5.39176e-06
50 *2:58 1.0426159999999999e-05
51 *2:59 3.20705e-05
52 *2:61 1.2495e-05
53 _427_:B1 2.94648e-06
54 *2:63 5.63808e-05
55 *2:65 1.666e-06
56 *2:68 5.39176e-06
57 *2:69 2.94648e-06
58 *2:70 6.005096e-05
59 *2:71 7.990088e-05
60 *2:72 1.70428e-05
61 *2:73 1.3622e-05
62 *2:76 4.314752e-05
63 *2:78 5.9689120000000006e-05
64 *2:80 6.664e-06
65 *2:82 2.035112e-05
66 *2:83 7.117840000000001e-06
67 *2:81 7.4969999999999995e-06
68 *2:85 6.756000000000001e-06
69 *2:86 4.8608e-05
70 _470_:A1 1.70428e-05
71 *2:89 1.3372639999999999e-05
72 *2:90 5.39176e-06
73 *2:91 0.00010967576000000001
74 _409_:A1 5.39176e-06
75 *2:93 4.681768e-05
76 *2:95 1.1662e-05
77 _418_:A1 1.0857680000000001e-05
78 *2:98 1.1662e-05
79 *2:100 7.117840000000001e-06
80 _405_:A1 7.117840000000001e-06
81 *2:102 2.0825e-05
82 *2:104 4.681768e-05
83 _419_:A1 6.005096e-05
84 _480_:A1 3.8095200000000007e-06
85 *2:107 1.3328e-05
86 *2:27 6.664e-06
87 *2:79 4.3509360000000005e-05
88 *2:42 0
89 _476_:A1 0
90 *2:14 0
91 *2:17 0
92 _483_:A1 0
93 *2:109 0
94 _455_:A1 0
95 *2:30 0
96 _490_:A1 0
97 *2:37 0
98 _373_:A 0
99 *2:50 0
100 *2:54 0
101 *2:55 0
102 _484_:A2 0
103 *2:64 0
104 _402_:A1 0
105 _421_:A1 0
106 _392_:A1 0
107 _449_:A1 0
108 _463_:A1 0
109 *2:77 0
110 _407_:B1 0
111 _408_:A1 0
112 _422_:A1 0
113 _467_:A1 0
114 *2:94 0
115 *2:97 0
116 *2:101 0
117 *2:105 0
118 *2:106 0
*RES
10 *2:1 _476_:A1 1.6428571428571428
11 *2:2 *2:3 0.6071428571428571
12 *2:4 _424_:A1 2.464285714285714
13 *2:5 *2:4 0.30357142857142855
14 *2:6 *2:5 1.232142857142857
15 *2:7 *2:8 4.553571428571428
16 *2:9 *2:10 2.1249999999999996
17 *2:11 *2:12 4.928571428571428
18 *2:13 *2:11 0.30357142857142855
19 _424_:A1 *2:13 2.0535714285714284
20 *2:12 *2:14 6.160714285714286
21 *2:15 *2:16 5.160714285714286
22 _374_:A2 *2:17 2.0535714285714284
23 *2:18 *2:19 0.30357142857142855
24 _444_:A1 *2:19 2.464285714285714
25 *2:20 *2:21 0.15178571428571427
26 *2:22 *2:21 0.4107142857142857
27 *2:23 _483_:A1 0.4107142857142857
28 *2:24 *2:25 5.160714285714286
29 *2:25 *2:26 6.374999999999999
30 *2:26 *2:27 5.4642857142857135
31 *2:28 _455_:A1 7.3928571428571415
32 *2:29 *2:28 0.6071428571428571
33 _487_:B1 *2:30 0.8214285714285714
34 *2:31 *2:32 12.44642857142857
35 *2:33 *2:34 11.089285714285714
36 *2:34 _490_:A1 0.30357142857142855
37 *2:35 *2:36 0.8214285714285714
38 _487_:B1 *2:36 0.30357142857142855
39 _425_:A1 *2:37 2.875
40 *2:38 *2:2 3.642857142857143
41 *2:39 *2:40 16.999999999999996
42 *2:41 *2:42 14.375
43 *2:43 *2:44 18.366071428571427
44 *2:45 *2:43 0.8214285714285714
45 *2:46 *2:45 15.785714285714285
46 *2:47 *2:46 1.6428571428571428
47 *2:48 *2:47 0.45535714285714285
48 *2:49 *2:50 22.58928571428571
49 *2:51 *2:52 2.4285714285714284
50 *2:53 *2:54 12.732142857142856
51 _262_:A *2:55 0.30357142857142855
52 _262_:A _262_:A 1.232142857142857
53 *2:56 _484_:A2 0.8214285714285714
54 *2:57 *2:56 0.6071428571428571
55 *2:58 *2:57 1.232142857142857
56 *2:59 *2:60 11.687499999999998
57 *2:61 *2:62 4.553571428571428
58 _427_:B1 *2:63 0.30357142857142855
59 *2:63 *2:64 6.571428571428571
60 *2:65 *2:66 0.6071428571428571
61 *2:63 *2:67 0.30357142857142855
62 *2:68 _392_:A1 0.6071428571428571
63 *2:69 _449_:A1 0.30357142857142855
64 *2:70 *2:67 7.3928571428571415
65 *2:18 *2:69 4.517857142857142
66 *2:71 *2:68 9.857142857142856
67 *2:72 _421_:A1 2.0535714285714284
68 *2:73 *2:74 4.553571428571428
69 *2:73 *2:75 0.4107142857142857
70 *2:76 _463_:A1 0.30357142857142855
71 *2:76 *2:77 4.928571428571428
72 *2:78 _407_:B1 0.30357142857142855
73 *2:78 *2:79 6.982142857142857
74 *2:80 *2:81 2.4285714285714284
75 *2:82 _407_:B1 2.464285714285714
76 *2:83 _422_:A1 0.8214285714285714
77 *2:81 *2:84 2.7321428571428568
78 *2:85 _467_:A1 0.4107142857142857
79 *2:86 *2:87 17.303571428571427
80 *2:86 *2:74 0.4107142857142857
81 _470_:A1 *2:88 2.0535714285714284
82 *2:89 *2:88 0.30357142857142855
83 *2:89 *2:90 1.232142857142857
84 *2:90 *2:91 0.6071428571428571
85 *2:91 *2:92 13.553571428571427
86 *2:85 *2:92 0.30357142857142855
87 _409_:A1 *2:93 0.6071428571428571
88 *2:93 *2:94 5.75
89 *2:95 *2:96 4.249999999999999
90 _418_:A1 *2:97 1.2857142857142856
91 *2:98 *2:99 4.249999999999999
92 *2:100 *2:93 0.8214285714285714
93 _405_:A1 *2:101 0.8214285714285714
94 *2:102 *2:103 7.5892857142857135
95 *2:104 *2:100 5.75
96 _419_:A1 *2:105 7.3928571428571415
97 _480_:A1 *2:106 0.4107142857142857
98 *2:107 *2:108 4.857142857142857
99 *2:27 *2:75 2.4285714285714284
100 *2:79 *2:29 5.339285714285714
101 *2:42 *2:2 0
102 _476_:A1 _476_:A1 0
103 *2:1 *2:3 0
104 _424_:A1 _424_:A1 0
105 *2:6 *2:8 0
106 _476_:A1 *2:7 0
107 _374_:A2 _374_:A2 0
108 _374_:A2 *2:10 0
109 *2:12 *2:9 0
110 *2:14 *2:40 0
111 _444_:A1 _444_:A1 0
112 _444_:A1 *2:16 0
113 *2:17 *2:15 0
114 *2:70 *2:20 0
115 _483_:A1 _483_:A1 0
116 *2:23 *2:25 0
117 *2:109 *2:24 0
118 *2:71 *2:26 0
119 *2:72 *2:27 0
120 _455_:A1 _455_:A1 0
121 _487_:B1 _487_:B1 0
122 *2:30 *2:32 0
123 *2:33 *2:31 0
124 _490_:A1 _490_:A1 0
125 *2:35 *2:38 0
126 *2:37 *2:39 0
127 _425_:A1 _425_:A1 0
128 _373_:A _373_:A 0
129 _373_:A *2:62 0
130 *2:41 *2:110 0
131 _262_:A _262_:A 0
132 _262_:A *2:44 0
133 *2:50 *2:48 0
134 *2:49 *2:52 0
135 *2:54 *2:51 0
136 *2:53 *2:60 0
137 *2:55 *2:61 0
138 _484_:A2 _484_:A2 0
139 *2:58 *2:111 0
140 _427_:B1 _427_:B1 0
141 *2:64 *2:66 0
142 _402_:A1 _402_:A1 0
143 _402_:A1 *2:65 0
144 _421_:A1 _421_:A1 0
145 _392_:A1 _392_:A1 0
146 _449_:A1 _449_:A1 0
147 *2:79 *2:74 0
148 _463_:A1 _463_:A1 0
149 *2:77 *2:75 0
150 _407_:B1 _407_:B1 0
151 _408_:A1 _408_:A1 0
152 _408_:A1 *2:81 0
153 *2:82 *2:80 0
154 _422_:A1 _422_:A1 0
155 *2:83 *2:84 0
156 _467_:A1 _467_:A1 0
157 *2:85 *2:87 0
158 _470_:A1 _470_:A1 0
159 _409_:A1 _409_:A1 0
160 *2:94 *2:95 0
161 _470_:A1 *2:96 0
162 _418_:A1 _418_:A1 0
163 *2:97 *2:99 0
164 *2:100 *2:98 0
165 _405_:A1 _405_:A1 0
166 *2:101 *2:102 0
167 *2:104 *2:103 0
168 _419_:A1 _419_:A1 0
169 *2:105 *2:112 0
170 _480_:A1 _480_:A1 0
171 *2:106 *2:108 0
172 _419_:A1 *2:107 0
*END

*D_NET *3 9.723786e-05
*CONN
*P div[0] I
*I _261_:A I
*CAP
119 *3:1 5.37285e-05
120 *3:3 4.3509360000000005e-05
121 _261_:A 0
*RES
173 *3:1 *3:2 19.580357142857142
174 *3:3 _261_:A 5.339285714285714
175 *3:3 *3:2 0
176 _261_:A _261_:A 0
*END

*D_NET *4 0.00016869185999999998
*CONN
*P div[1] I
*I _279_:A I
*I _278_:A I
*CAP
122 _279_:A 2.94648e-06
123 *4:2 3.04045e-05
124 *4:4 5.831e-06
125 *4:1 2.035112e-05
126 _278_:A 2.6967760000000004e-05
127 *4:7 8.2191e-05
128 *4:6 0
129 *4:3 0
130 *4:5 0
*RES
177 _279_:A *4:1 0.30357142857142855
178 *4:2 *4:3 11.080357142857142
179 *4:4 *4:2 2.1249999999999996
180 *4:1 *4:5 2.464285714285714
181 _278_:A *4:6 3.2857142857142856
182 *4:7 *4:8 1.6935666666666669
183 _278_:A _278_:A 0
184 _279_:A _279_:A 0
185 *4:6 *4:2 0
186 *4:3 *4:8 0
187 *4:5 *4:4 0
*END

*D_NET *5 0.00019708366000000002
*CONN
*P div[2] I
*I _260_:A I
*CAP
131 *5:1 2.12415e-05
132 _260_:A 0.00017584216
133 *5:3 0
*RES
188 *5:1 *5:2 7.741071428571428
189 _260_:A *5:3 21.76785714285714
190 *5:3 *5:2 0
191 _260_:A _260_:A 0
*END

*D_NET *6 0.0004623357
*CONN
*P div[3] I
*I _301_:A1 I
*I _293_:A I
*I _292_:A1 I
*CAP
134 *6:1 0.000158091
135 _301_:A1 3.0276079999999998e-05
136 *6:4 0.00020439216000000003
137 *6:6 6.664e-06
138 *6:8 1.6680960000000002e-05
139 *6:7 1.2495e-05
140 *6:11 3.37365e-05
141 *6:5 0
142 _292_:A1 0
143 *6:13 0
144 _293_:A 0
145 *6:9 0
*RES
192 *6:1 *6:2 3.2790333333333335
193 _301_:A1 *6:3 3.6964285714285707
194 *6:4 *6:3 0.6071428571428571
195 *6:4 *6:5 24.642857142857142
196 *6:6 *6:7 2.4285714285714284
197 *6:8 _293_:A 0.30357142857142855
198 *6:8 *6:9 1.6428571428571428
199 *6:7 *6:10 4.553571428571428
200 *6:11 *6:12 12.294642857142856
201 *6:11 *6:1 0
202 _301_:A1 _301_:A1 0
203 *6:5 *6:12 0
204 _292_:A1 _292_:A1 0
205 _292_:A1 *6:7 0
206 *6:13 *6:6 0
207 _293_:A _293_:A 0
208 *6:9 *6:10 0
*END

*D_NET *7 9.513984e-05
*CONN
*P div[4] I
*I _304_:A1 I
*I _300_:A I
*CAP
146 *7:1 4.165e-07
147 *7:3 7.117840000000001e-06
148 *7:2 5.4145e-06
149 *7:5 8.2191e-05
150 _304_:A1 0
151 _300_:A 0
*RES
209 *7:1 *7:2 0.15178571428571427
210 *7:3 _300_:A 0.8214285714285714
211 *7:2 *7:4 1.9732142857142856
212 *7:5 *7:6 1.6935666666666669
213 _304_:A1 _304_:A1 0
214 _304_:A1 *7:1 0
215 *7:2 *7:6 0
216 _300_:A _300_:A 0
217 *7:3 *7:4 0
*END

*D_NET *8 0.00020417134
*CONN
*P enable I
*I _267_:A I
*I _266_:A I
*CAP
152 *8:1 8.33e-06
153 *8:3 0.000184387
154 *8:2 4.165e-07
155 *8:5 7.117840000000001e-06
156 *8:6 2.254e-06
157 *8:7 1.666e-06
158 _267_:A 0
159 _266_:A 0
*RES
218 *8:1 *8:2 3.035714285714285
219 *8:3 *8:4 0.4107142857142857
220 *8:2 *8:4 0.15178571428571427
221 *8:5 _267_:A 0.8214285714285714
222 *8:6 *8:7 0.8214285714285714
223 *8:7 *8:8 0.6071428571428571
224 *8:3 *8:6 66.78571428571428
225 _267_:A _267_:A 0
226 *8:5 *8:2 0
227 _266_:A _266_:A 0
228 _266_:A *8:1 0
*END

*D_NET *9 0.00058146418
*CONN
*P ext_trim[0] I
*I _374_:A1 I
*CAP
160 *9:1 7.4969999999999995e-06
161 *9:3 0.00038757464000000006
162 *9:5 4.020104e-05
163 *9:7 2.9571500000000003e-05
164 *9:9 0.00011662
165 *9:4 0
166 _374_:A1 0
167 *9:6 0
*RES
229 *9:1 *9:2 2.7321428571428568
230 *9:3 *9:4 48.05357142857142
231 *9:5 *9:6 4.928571428571428
232 *9:7 *9:8 10.776785714285714
233 *9:9 *9:10 42.5
234 *9:4 *9:2 0
235 _374_:A1 _374_:A1 0
236 _374_:A1 *9:1 0
237 *9:3 *9:9 0
238 *9:6 *9:10 0
239 *9:5 *9:7 0
*END

*D_NET *10 6.834333999999999e-05
*CONN
*P ext_trim[10] I
*I _422_:A2 I
*CAP
168 _422_:A2 7.117840000000001e-06
169 *10:1 6.122549999999999e-05
*RES
240 _422_:A2 _422_:A2 0.8214285714285714
241 *10:1 *10:2 22.312499999999996
242 _422_:A2 *10:1 0
243 _422_:A2 _422_:A2 0
*END

*D_NET *11 0.0006125812599999999
*CONN
*P ext_trim[11] I
*I _424_:A2 I
*CAP
170 *11:1 5.4591e-05
171 *11:3 3.87345e-05
172 *11:5 4.5815e-06
173 *11:7 0.00023916599999999997
174 *11:9 4.165e-07
175 *11:11 0.00027509176
176 *11:4 0
177 *11:12 0
178 *11:10 0
179 _424_:A2 0
*RES
244 *11:1 *11:2 1.1170333333333335
245 *11:3 *11:4 14.116071428571427
246 *11:5 *11:6 1.669642857142857
247 *11:7 *11:8 4.9726
248 *11:9 *11:10 0.15178571428571427
249 *11:11 *11:12 34.08928571428571
250 *11:4 *11:2 0
251 *11:11 *11:3 0
252 *11:12 *11:6 0
253 *11:5 *11:7 0
254 *11:10 *11:8 0
255 _424_:A2 _424_:A2 0
256 _424_:A2 *11:9 0
*END

*D_NET *12 0.00030652534000000003
*CONN
*P ext_trim[12] I
*I _425_:A2 I
*CAP
180 *12:1 6.205849999999999e-05
181 _425_:A2 8.982584e-05
182 *12:4 0.000154641
183 *12:3 0
*RES
257 *12:1 *12:2 22.616071428571423
258 _425_:A2 *12:3 11.089285714285714
259 *12:4 *12:5 3.2069666666666667
260 *12:1 *12:4 0
261 *12:3 *12:2 0
262 _425_:A2 _425_:A2 0
*END

*D_NET *13 0.00021587014000000001
*CONN
*P ext_trim[13] I
*I _427_:B2 I
*CAP
184 *13:1 3.332e-05
185 *13:3 0.0001258075
186 _427_:B2 5.6742640000000004e-05
187 *13:4 0
*RES
263 *13:1 *13:2 12.14285714285714
264 *13:3 *13:2 4.107142857142857
265 _427_:B2 *13:4 6.982142857142857
266 *13:3 *13:5 41.74107142857142
267 _427_:B2 _427_:B2 0
268 *13:4 *13:5 0
*END

*D_NET *14 0.00064799222
*CONN
*P ext_trim[14] I
*I _444_:A2 I
*CAP
188 *14:1 4.165e-06
189 *14:3 1.12455e-05
190 *14:5 9.9441e-05
191 *14:7 0.00053314072
192 *14:8 0
193 _444_:A2 0
*RES
269 *14:1 *14:2 1.5178571428571426
270 *14:3 *14:4 4.098214285714286
271 *14:5 *14:6 2.0539
272 *14:7 *14:8 66.125
273 *14:8 *14:1 0
274 _444_:A2 _444_:A2 0
275 _444_:A2 *14:2 0
276 *14:3 *14:6 0
277 *14:7 *14:4 0
*END

*D_NET *15 0.00074095418
*CONN
*P ext_trim[15] I
*I _449_:A2 I
*CAP
194 _449_:A2 1.70428e-05
195 *15:2 3.332e-06
196 *15:4 0.00026185848000000005
197 *15:6 0.00014077700000000002
198 *15:8 3.6235499999999996e-05
199 *15:10 0.0002817084
200 *15:1 0
201 *15:11 0
202 *15:5 0
*RES
278 _449_:A2 *15:1 2.0535714285714284
279 *15:2 *15:3 1.2142857142857142
280 *15:4 *15:5 32.44642857142857
281 *15:6 *15:7 51.30357142857142
282 *15:8 *15:9 13.20535714285714
283 *15:10 *15:11 34.910714285714285
284 *15:1 *15:7 0
285 _449_:A2 _449_:A2 0
286 *15:11 *15:2 0
287 *15:4 *15:3 0
288 *15:5 *15:6 0
289 *15:10 *15:9 0
*END

*D_NET *16 0.00012737926
*CONN
*P ext_trim[16] I
*I _455_:A2 I
*CAP
203 *16:1 8.746499999999998e-06
204 _455_:A2 5.39176e-06
205 *16:4 0.000113241
206 *16:2 0
207 *16:3 0
*RES
290 *16:1 *16:2 3.1874999999999996
291 _455_:A2 *16:3 0.6071428571428571
292 *16:4 *16:5 2.342166666666667
293 *16:2 *16:4 0
294 *16:3 *16:1 0
295 _455_:A2 _455_:A2 0
*END

*D_NET *17 0.0006476013400000001
*CONN
*P ext_trim[17] I
*I _463_:A2 I
*CAP
208 *17:1 7.4969999999999995e-06
209 *17:3 6.2475e-06
210 *17:5 0.000130491
211 *17:7 0.0005033658400000001
212 *17:8 0
213 _463_:A2 0
214 *17:4 0
*RES
296 *17:1 *17:2 2.7321428571428568
297 *17:3 *17:4 2.276785714285714
298 *17:5 *17:6 2.7025
299 *17:7 *17:8 62.42857142857142
300 *17:8 *17:2 0
301 _463_:A2 _463_:A2 0
302 _463_:A2 *17:1 0
303 *17:4 *17:6 0
304 *17:7 *17:3 0
*END

*D_NET *18 0.00019629802000000005
*CONN
*P ext_trim[18] I
*I _467_:A2 I
*CAP
215 *18:1 2.7072500000000002e-05
216 _467_:A2 0.00016922552000000004
217 *18:3 0
*RES
305 *18:1 *18:2 9.866071428571429
306 _467_:A2 *18:3 20.94642857142857
307 *18:3 *18:1 0
308 _467_:A2 _467_:A2 0
*END

*D_NET *19 0.00021331038
*CONN
*P ext_trim[19] I
*I _470_:A2 I
*CAP
218 *19:1 5.39176e-06
219 *19:2 1.538864e-05
220 *19:3 0.00011089616000000001
221 *19:5 5.343432e-05
222 *19:6 4.165e-07
223 *19:8 2.7783e-05
224 _470_:A2 0
*RES
309 *19:1 *19:2 0.6071428571428571
310 *19:2 _470_:A2 1.8482142857142854
311 *19:3 *19:4 0.9107142857142857
312 *19:5 *19:4 6.571428571428571
313 *19:6 *19:7 0.15178571428571427
314 *19:8 *19:7 0.4107142857142857
315 *19:8 *19:9 9.714285714285714
316 *19:3 *19:1 12.732142857142856
317 _470_:A2 _470_:A2 0
318 *19:5 *19:6 0
*END

*D_NET *20 0.00013768949999999998
*CONN
*P ext_trim[1] I
*I _392_:A2 I
*CAP
225 *20:1 3.7484999999999998e-06
226 *20:3 0.000133941
227 *20:2 0
228 _392_:A2 0
*RES
319 *20:1 *20:2 1.3660714285714284
320 *20:3 *20:4 2.774566666666667
321 *20:2 *20:3 0
322 _392_:A2 _392_:A2 0
323 _392_:A2 *20:1 0
*END

*D_NET *21 0.00026865790000000004
*CONN
*P ext_trim[20] I
*I _476_:A2 I
*CAP
229 *21:1 4.998e-05
230 *21:3 0.00010238550000000001
231 _476_:A2 0.00011629240000000002
232 *21:4 0
*RES
324 *21:1 *21:2 18.21428571428571
325 *21:3 *21:2 1.6428571428571428
326 _476_:A2 *21:4 14.375
327 *21:3 *21:5 35.669642857142854
328 *21:4 *21:5 0
329 _476_:A2 _476_:A2 0
*END

*D_NET *22 0.0003688959
*CONN
*P ext_trim[21] I
*I _480_:A2 I
*CAP
233 *22:1 2.0825e-06
234 *22:3 0.00022215864000000001
235 *22:4 5.39176e-06
236 *22:5 8.772e-06
237 *22:6 0.000130491
238 *22:2 0
239 _480_:A2 0
*RES
330 *22:1 *22:2 0.7589285714285713
331 *22:3 *22:4 27.51785714285714
332 *22:4 *22:5 0.6071428571428571
333 *22:5 _480_:A2 1.0267857142857142
334 *22:6 *22:7 2.7025
335 *22:2 *22:7 0
336 *22:3 *22:1 0
337 _480_:A2 _480_:A2 0
*END

*D_NET *23 0.00023110081999999998
*CONN
*P ext_trim[22] I
*I _483_:A2 I
*CAP
240 *23:1 1.9575500000000003e-05
241 _483_:A2 5.343432e-05
242 *23:4 0.000158091
243 *23:3 0
*RES
338 *23:1 *23:2 7.133928571428571
339 _483_:A2 *23:3 6.571428571428571
340 *23:4 *23:5 3.2790333333333335
341 *23:1 *23:4 0
342 *23:3 *23:2 0
343 _483_:A2 _483_:A2 0
*END

*D_NET *24 0.00046233514
*CONN
*P ext_trim[23] I
*I _484_:B2 I
*CAP
244 *24:1 3.7484999999999998e-06
245 *24:3 0.00025524184
246 *24:5 5.5811e-05
247 *24:7 1.70428e-05
248 *24:8 0.000130491
249 *24:4 0
250 _484_:B2 0
*RES
344 *24:1 *24:2 1.3660714285714284
345 *24:3 *24:4 31.625
346 *24:5 *24:6 20.33928571428571
347 *24:7 _484_:B2 2.0535714285714284
348 *24:8 *24:9 2.7025
349 *24:1 *24:9 0
350 *24:3 *24:2 0
351 *24:4 *24:5 0
352 *24:7 *24:6 0
353 _484_:B2 _484_:B2 0
*END

*D_NET *25 0.0002499889
*CONN
*P ext_trim[24] I
*I _487_:B2 I
*CAP
251 *25:1 9.996e-05
252 *25:3 3.37365e-05
253 *25:5 0.00011629240000000002
254 *25:6 0
255 _487_:B2 0
*RES
354 *25:1 *25:2 36.42857142857142
355 *25:3 *25:4 12.294642857142856
356 *25:5 *25:6 14.375
357 *25:6 *25:1 0
358 _487_:B2 _487_:B2 0
359 _487_:B2 *25:2 0
360 *25:5 *25:4 0
*END

*D_NET *26 0.00027701446
*CONN
*P ext_trim[25] I
*I _490_:A2 I
*CAP
256 *26:1 4.165e-07
257 *26:3 6.005096e-05
258 *26:5 8.33e-06
259 _490_:A2 5.0126e-05
260 *26:8 0.000158091
261 *26:4 0
262 *26:7 0
*RES
361 *26:1 *26:2 0.15178571428571427
362 *26:3 *26:4 7.3928571428571415
363 *26:5 *26:6 3.035714285714285
364 _490_:A2 *26:7 6.160714285714286
365 *26:8 *26:9 3.2790333333333335
366 *26:1 *26:8 0
367 *26:4 *26:2 0
368 *26:3 *26:5 0
369 *26:7 *26:6 0
370 _490_:A2 _490_:A2 0
*END

*D_NET *27 0.0001149695
*CONN
*P ext_trim[2] I
*I _402_:A2 I
*CAP
263 *27:1 0.000102891
264 *27:3 1.2078499999999998e-05
265 _402_:A2 0
*RES
371 *27:1 *27:2 2.125966666666667
372 *27:3 *27:4 4.4017857142857135
373 *27:3 *27:1 0
374 _402_:A2 _402_:A2 0
375 _402_:A2 *27:4 0
*END

*D_NET *28 0.0003831349400000001
*CONN
*P ext_trim[3] I
*I _405_:A2 I
*CAP
266 *28:1 1.70428e-05
267 *28:2 0.00030486664000000004
268 *28:4 3.87345e-05
269 *28:6 2.2491e-05
270 _405_:A2 0
271 *28:3 0
*RES
376 *28:1 _405_:A2 2.0535714285714284
377 *28:2 *28:3 37.785714285714285
378 *28:4 *28:5 14.116071428571427
379 *28:6 *28:7 8.196428571428571
380 *28:1 *28:6 0
381 _405_:A2 _405_:A2 0
382 *28:3 *28:7 0
383 *28:2 *28:4 0
*END

*D_NET *29 0.00015369406000000001
*CONN
*P ext_trim[4] I
*I _407_:B2 I
*CAP
272 *29:1 7.659256000000001e-05
273 *29:3 1.45775e-05
274 *29:5 1.8375e-05
275 *29:7 4.4148999999999994e-05
276 _407_:B2 0
277 *29:2 0
*RES
384 *29:1 *29:2 9.446428571428571
385 *29:3 *29:4 5.3125
386 *29:5 *29:4 1.232142857142857
387 *29:5 *29:6 5.4642857142857135
388 *29:7 *29:8 16.08928571428571
389 _407_:B2 _407_:B2 0
390 _407_:B2 *29:7 0
391 *29:1 *29:8 0
392 *29:2 *29:3 0
*END

*D_NET *30 0.0002833763
*CONN
*P ext_trim[5] I
*I _408_:A2 I
*CAP
278 *30:1 4.998e-05
279 *30:2 3.381e-06
280 *30:4 2.94648e-06
281 *30:5 1.0426159999999999e-05
282 *30:7 2.499e-05
283 _408_:A2 1.0426159999999999e-05
284 *30:10 3.381e-06
285 *30:3 0.00011828600000000001
286 *30:11 5.95595e-05
287 *30:6 0
288 *30:9 0
*RES
393 *30:1 *30:2 18.21428571428571
394 *30:2 *30:3 1.232142857142857
395 *30:4 *30:5 0.30357142857142855
396 *30:5 *30:6 1.232142857142857
397 *30:7 *30:8 9.107142857142856
398 _408_:A2 *30:9 1.232142857142857
399 *30:10 *30:11 1.232142857142857
400 *30:3 *30:10 43.107142857142854
401 *30:11 *30:12 21.70535714285714
402 *30:4 *30:12 0
403 *30:6 *30:7 0
404 *30:9 *30:8 0
405 _408_:A2 _408_:A2 0
*END

*D_NET *31 7.067658e-05
*CONN
*P ext_trim[6] I
*I _409_:A2 I
*CAP
289 _409_:A2 3.0276079999999998e-05
290 *31:2 4.04005e-05
291 *31:1 0
*RES
406 _409_:A2 *31:1 3.6964285714285707
407 *31:2 *31:3 14.723214285714283
408 _409_:A2 _409_:A2 0
409 *31:1 *31:2 0
*END

*D_NET *32 0.00048862118
*CONN
*P ext_trim[7] I
*I _418_:A2 I
*CAP
292 *32:1 2.9571500000000003e-05
293 *32:3 2.94648e-06
294 *32:5 0.00015599224000000002
295 *32:6 7.83704e-06
296 *32:7 6.66676e-05
297 *32:9 6.299744e-05
298 *32:4 0.00016260888
299 _418_:A2 0
*RES
410 *32:1 *32:2 10.776785714285714
411 *32:3 *32:4 0.30357142857142855
412 *32:5 *32:3 19.303571428571427
413 *32:6 *32:7 0.9107142857142857
414 *32:7 *32:8 8.214285714285714
415 *32:9 *32:8 0.30357142857142855
416 *32:9 _418_:A2 7.3928571428571415
417 *32:4 *32:6 20.124999999999996
418 *32:5 *32:1 0
419 _418_:A2 _418_:A2 0
*END

*D_NET *33 0.00013570034000000002
*CONN
*P ext_trim[8] I
*I _419_:A2 I
*CAP
300 *33:1 9.201280000000001e-06
301 *33:3 7.659256000000001e-05
302 *33:4 1.04125e-05
303 *33:6 3.949399999999999e-05
304 _419_:A2 0
*RES
420 *33:1 _419_:A2 0.4107142857142857
421 *33:1 *33:2 0.6071428571428571
422 *33:3 *33:2 9.446428571428571
423 *33:4 *33:5 3.7946428571428568
424 *33:6 *33:5 1.6428571428571428
425 *33:6 *33:7 12.749999999999998
426 _419_:A2 _419_:A2 0
427 *33:3 *33:4 0
*END

*D_NET *34 0.00026797214
*CONN
*P ext_trim[9] I
*I _421_:A2 I
*CAP
305 _421_:A2 5.6742640000000004e-05
306 *34:2 7.038850000000001e-05
307 *34:4 0.000140841
308 *34:1 0
309 *34:3 0
*RES
428 _421_:A2 *34:1 6.982142857142857
429 *34:2 *34:3 25.65178571428571
430 *34:4 *34:5 2.9187000000000003
431 *34:1 *34:2 0
432 _421_:A2 _421_:A2 0
433 *34:3 *34:4 0
*END

*D_NET *35 0.00014183826000000002
*CONN
*P osc I
*I _514_:D I
*CAP
310 *35:1 3.6892719999999995e-05
311 *35:2 2.94648e-06
312 *35:4 2.5406499999999998e-05
313 *35:3 7.659256000000001e-05
314 _514_:D 0
*RES
434 *35:1 *35:2 4.517857142857142
435 *35:2 *35:3 0.30357142857142855
436 *35:4 *35:5 9.25892857142857
437 *35:3 _514_:D 9.446428571428571
438 _514_:D _514_:D 0
439 *35:1 *35:5 0
*END

*D_NET *36 0.00032687545999999997
*CONN
*P resetb I
*I _267_:B I
*I _266_:B I
*CAP
315 *36:1 3.40305e-05
316 *36:4 6.28915e-05
317 *36:5 0.00015268392
318 *36:2 4.998e-06
319 *36:8 3.20705e-05
320 *36:10 4.020104e-05
321 _267_:B 0
322 _266_:B 0
323 *36:6 0
*RES
440 *36:1 *36:2 11.991071428571427
441 *36:1 *36:3 0.4107142857142857
442 *36:4 *36:3 22.919642857142858
443 *36:5 *36:6 18.892857142857142