* SPICE NETLIST
***************************************

.SUBCKT MN g s d b
.ENDS
***************************************
.SUBCKT MP g s d b
.ENDS
***************************************
.SUBCKT condiode pin0 pin1
.ENDS
***************************************
.SUBCKT condiodeHvPsub pin0 pin1
.ENDS
***************************************
.SUBCKT nvhv pin0 pin1 pin2 pin3
.ENDS
***************************************
.SUBCKT n20vhv1 pin0 pin1 pin2 pin3
.ENDS
***************************************
.SUBCKT n20nativevhv1 pin0 pin1 pin2 pin3
.ENDS
***************************************
.SUBCKT n20vhviso1 pin0 pin1 pin2 pin3 pin4
.ENDS
***************************************
.SUBCKT n20nativevhviso1 pin0 pin1 pin2 pin3 pin4
.ENDS
***************************************
.SUBCKT pvhv pin0 pin1 pin2 pin3
.ENDS
***************************************
.SUBCKT p20vhv1 pin0 pin1 pin2 pin3
.ENDS
***************************************
.SUBCKT xcnwvc pin0 pin1 pin2
.ENDS
***************************************
.SUBCKT xcnwvc2 pin0 pin1 pin2
.ENDS
***************************************
.SUBCKT xchvnwc pin0 pin1 pin2
.ENDS
***************************************
.SUBCKT Dpar d0 d1
.ENDS
***************************************
.SUBCKT xcmvpp pin0 pin1 pin2
.ENDS
***************************************
.SUBCKT xcmvpp_2 pin0 pin1 pin2
.ENDS
***************************************
.SUBCKT xcmvpp2_nhvnative10x4 pin0 pin1 pin2
.ENDS
***************************************
.SUBCKT xcmvpp2_phv5x4 pin0 pin1 pin2
.ENDS
***************************************
.SUBCKT xcmvpp_hd5_atlas_fingercap2_l5 pin0 pin1 pin2
.ENDS
***************************************
.SUBCKT xcmvpp_hd5_atlas_wafflecap2 pin0 pin1 pin2
.ENDS
***************************************
.SUBCKT xcmvpp_hd5_atlas_wafflecap1 pin0 pin1 pin2
.ENDS
***************************************
.SUBCKT xcmvpp_hd5_atlas_fingercap_l40 pin0 pin1 pin2
.ENDS
***************************************
.SUBCKT xcmvpp_hd5_atlas_fingercap_l20 pin0 pin1 pin2
.ENDS
***************************************
.SUBCKT xcmvpp_hd5_atlas_fingercap_l10 pin0 pin1 pin2
.ENDS
***************************************
.SUBCKT xcmvpp_hd5_atlas_fingercap_l5 pin0 pin1 pin2
.ENDS
***************************************
.SUBCKT xcmvpp_hd5_5x2_met5pullin pin0 pin1 pin2
.ENDS
***************************************
.SUBCKT xcmvpp_hd5_5x2 pin0 pin1 pin2
.ENDS
***************************************
.SUBCKT xcmvpp_hd5_5x1_met5pullin pin0 pin1 pin2
.ENDS
***************************************
.SUBCKT xcmvpp_hd5_5x1 pin0 pin1 pin2
.ENDS
***************************************
.SUBCKT xcmvpp_hd5_4x2 pin0 pin1 pin2
.ENDS
***************************************
.SUBCKT xcmvpp_hd5_4x1 pin0 pin1 pin2
.ENDS
***************************************
.SUBCKT xcmvpp_hd5_3x2 pin0 pin1 pin2
.ENDS
***************************************
.SUBCKT xcmvpp_hd5_3x1 pin0 pin1 pin2
.ENDS
***************************************
.SUBCKT xcmvpp_hd5_2x2 pin0 pin1 pin2
.ENDS
***************************************
.SUBCKT xcmvpp_hd5_2x1 pin0 pin1 pin2
.ENDS
***************************************
.SUBCKT xcmvpp_hd5_1x2 pin0 pin1 pin2
.ENDS
***************************************
.SUBCKT xcmvpp_hd5_1x1 pin0 pin1 pin2
.ENDS
***************************************
.SUBCKT xcmvppx4_2xnhvnative10x4 pin0 pin1 pin2 pin3
.ENDS
***************************************
.SUBCKT xcmvpp11p5x11p7_polym50p4shield pin0 pin1 pin2 pin3
.ENDS
***************************************
.SUBCKT xcmvpp4p4x4p6_m3_lim5shield pin0 pin1 pin2 pin3
.ENDS
***************************************
.SUBCKT xcmvpp11p5x11p7_m3_lim5shield pin0 pin1 pin2 pin3
.ENDS
***************************************
.SUBCKT xcmvpp8p6x7p9_m3_lim5shield pin0 pin1 pin2 pin3
.ENDS
***************************************
.SUBCKT xcmvpp11p5x11p7_lim5shield pin0 pin1 pin2 pin3
.ENDS
***************************************
.SUBCKT xcmvpp11p5x11p7_polym5shield pin0 pin1 pin2 pin3
.ENDS
***************************************
.SUBCKT xcmvpp11p5x11p7_m5shield pin0 pin1 pin2 pin3
.ENDS
***************************************
.SUBCKT xcmvpp6p8x6p1_lim4shield pin0 pin1 pin2 pin3
.ENDS
***************************************
.SUBCKT xcmvpp6p8x6p1_polym4shield pin0 pin1 pin2 pin3
.ENDS
***************************************
.SUBCKT xcmvpp11p5x11p7_polym4shield pin0 pin1 pin2 pin3
.ENDS
***************************************
.SUBCKT xcmvpp11p5x11p7_m4shield pin0 pin1 pin2 pin3
.ENDS
***************************************
.SUBCKT xcmvpp1p8x1p8 pin0 pin1 pin2
.ENDS
***************************************
.SUBCKT xcmvpp4p4x4p6_m3_lishield pin0 pin1 pin2
.ENDS
***************************************
.SUBCKT xcmvpp8p6x7p9_m3_lishield pin0 pin1 pin2
.ENDS
***************************************
.SUBCKT xcmvpp11p5x11p7_m3_lishield pin0 pin1 pin2
.ENDS
***************************************
.SUBCKT xcmvpp11p5x11p7_m3shield c0 c1 b term4
.ENDS
***************************************
.SUBCKT xcmvpp8p6x7p9_m3shield c0 c1 b term4
.ENDS
***************************************
.SUBCKT xcmvpp4p4x4p6_m3shield c0 c1 b term4
.ENDS
***************************************
.SUBCKT xcmvpp1p8x1p8_m3shield c0 c1 b term4
.ENDS
***************************************
.SUBCKT xcmvpp11p5x11p7_m1m4m5shield pin0 pin1 pin2 pin3
.ENDS
***************************************
.SUBCKT xcmvpp11p5x11p7_m1m4 pin0 pin1 pin2
.ENDS
***************************************
.SUBCKT xcmvpp11p5x11p7_m1m2 pin0 pin1 pin2
.ENDS
***************************************
.SUBCKT xcmvpp4p4x4p6_m1m2 pin0 pin1 pin2
.ENDS
***************************************
.SUBCKT xcmvpp5 pin0 pin1 pin2
.ENDS
***************************************
.SUBCKT xcmvpp4 pin0 pin1 pin2
.ENDS
***************************************
.SUBCKT xcmvpp3 pin0 pin1 pin2
.ENDS
***************************************
.SUBCKT balun pin0 pin1 pin2 pin3 pin4 pin5
.ENDS
***************************************
.SUBCKT ind4 pin0 pin1 pin2 pin3
.ENDS
***************************************
.SUBCKT xhrpoly_0p35 POS NEG SUB
.ENDS
***************************************
.SUBCKT xuhrpoly_0p35 POS NEG SUB
.ENDS
***************************************
.SUBCKT xhrpoly_0p69 POS NEG SUB
.ENDS
***************************************
.SUBCKT xuhrpoly_0p69 POS NEG SUB
.ENDS
***************************************
.SUBCKT xhrpoly_1p41 POS NEG SUB
.ENDS
***************************************
.SUBCKT xuhrpoly_1p41 POS NEG SUB
.ENDS
***************************************
.SUBCKT xhrpoly_2p85 POS NEG SUB
.ENDS
***************************************
.SUBCKT xuhrpoly_2p85 POS NEG SUB
.ENDS
***************************************
.SUBCKT xhrpoly_5p73 POS NEG SUB
.ENDS
***************************************
.SUBCKT xuhrpoly_5p73 POS NEG SUB
.ENDS
***************************************
.SUBCKT Probe probe conductor
.ENDS
***************************************
.SUBCKT dff gnd vdd D clk Q
**
*.SEEDPROM
M0 gnd 22 23 gnd nshort L=0.15 W=1 AD=0.14 AS=0.265 PD=1.28 PS=2.53 NRD=0 NRS=0 m=1 sa=75000.2 sb=75004.1 a=0.15 p=2.3
M1 30 D gnd gnd nshort L=0.15 W=1 AD=0.105 AS=0.14 PD=1.21 PS=1.28 NRD=5.988 NRS=0 m=1 sa=75000.6 sb=75003.7 a=0.15 p=2.3
M2 22 24 30 gnd nshort L=0.15 W=1 AD=0.225 AS=0.105 PD=1.45 PS=1.21 NRD=10.188 NRS=5.988 m=1 sa=75001 sb=75003.3 a=0.15 p=2.3
M3 31 clk 22 gnd nshort L=0.15 W=1 AD=0.105 AS=0.225 PD=1.21 PS=1.45 NRD=5.988 NRS=10.188 m=1 sa=75001.6 sb=75002.7 a=0.15 p=2.3
M4 gnd 23 31 gnd nshort L=0.15 W=1 AD=0.14 AS=0.105 PD=1.28 PS=1.21 NRD=0 NRS=5.988 m=1 sa=75001.9 sb=75002.4 a=0.15 p=2.3
M5 32 23 gnd gnd nshort L=0.15 W=1 AD=0.105 AS=0.14 PD=1.21 PS=1.28 NRD=5.988 NRS=0 m=1 sa=75002.4 sb=75001.9 a=0.15 p=2.3
M6 ON clk 32 gnd nshort L=0.15 W=1 AD=0.225 AS=0.105 PD=1.45 PS=1.21 NRD=10.188 NRS=5.988 m=1 sa=75002.7 sb=75001.6 a=0.15 p=2.3
M7 33 24 ON gnd nshort L=0.15 W=1 AD=0.105 AS=0.225 PD=1.21 PS=1.45 NRD=5.988 NRS=10.188 m=1 sa=75003.3 sb=75001 a=0.15 p=2.3
M8 gnd Q 33 gnd nshort L=0.15 W=1 AD=0.14 AS=0.105 PD=1.28 PS=1.21 NRD=0 NRS=5.988 m=1 sa=75003.7 sb=75000.6 a=0.15 p=2.3
M9 24 clk gnd gnd nshort L=0.15 W=1 AD=0.265 AS=0.14 PD=2.53 PS=1.28 NRD=0 NRS=0 m=1 sa=75004.1 sb=75000.2 a=0.15 p=2.3
M10 Q ON gnd gnd nshort L=0.15 W=1 AD=0.265 AS=0.265 PD=2.53 PS=2.53 NRD=0 NRS=0 m=1 sa=75000.2 sb=75000.2 a=0.15 p=2.3
M11 vdd 22 23 vdd pshort L=0.15 W=3 AD=0.42 AS=0.795 PD=3.28 PS=6.53 NRD=0 NRS=0 m=1 sa=75000.2 sb=75004.1 a=0.45 p=6.3
M12 26 D vdd vdd pshort L=0.15 W=3 AD=0.315 AS=0.42 PD=3.21 PS=3.28 NRD=3.2702 NRS=0 m=1 sa=75000.6 sb=75003.7 a=0.45 p=6.3
M13 22 clk 26 vdd pshort L=0.15 W=3 AD=0.675 AS=0.315 PD=3.45 PS=3.21 NRD=5.5751 NRS=3.2702 m=1 sa=75001 sb=75003.3 a=0.45 p=6.3
M14 27 24 22 vdd pshort L=0.15 W=3 AD=0.315 AS=0.675 PD=3.21 PS=3.45 NRD=3.2702 NRS=5.5751 m=1 sa=75001.6 sb=75002.7 a=0.45 p=6.3
M15 vdd 23 27 vdd pshort L=0.15 W=3 AD=0.42 AS=0.315 PD=3.28 PS=3.21 NRD=0 NRS=3.2702 m=1 sa=75001.9 sb=75002.4 a=0.45 p=6.3
M16 28 23 vdd vdd pshort L=0.15 W=3 AD=0.315 AS=0.42 PD=3.21 PS=3.28 NRD=3.2702 NRS=0 m=1 sa=75002.4 sb=75001.9 a=0.45 p=6.3
M17 ON 24 28 vdd pshort L=0.15 W=3 AD=0.675 AS=0.315 PD=3.45 PS=3.21 NRD=5.5751 NRS=3.2702 m=1 sa=75002.7 sb=75001.6 a=0.45 p=6.3
M18 29 clk ON vdd pshort L=0.15 W=3 AD=0.315 AS=0.675 PD=3.21 PS=3.45 NRD=3.2702 NRS=5.5751 m=1 sa=75003.3 sb=75001 a=0.45 p=6.3
M19 vdd Q 29 vdd pshort L=0.15 W=3 AD=0.42 AS=0.315 PD=3.28 PS=3.21 NRD=0 NRS=3.2702 m=1 sa=75003.7 sb=75000.6 a=0.45 p=6.3
M20 24 clk vdd vdd pshort L=0.15 W=3 AD=0.795 AS=0.42 PD=6.53 PS=3.28 NRD=0 NRS=0 m=1 sa=75004.1 sb=75000.2 a=0.45 p=6.3
M21 Q ON vdd vdd pshort L=0.15 W=3 AD=0.795 AS=0.795 PD=6.53 PS=6.53 NRD=0 NRS=0 m=1 sa=75000.2 sb=75000.2 a=0.45 p=6.3
.ENDS
***************************************
.SUBCKT col_addr_dff gnd vdd din_0 clk dout_0
**
*.SEEDPROM
X0 gnd vdd din_0 clk dout_0 dff $T=0 0 0 0
.ENDS
***************************************
.SUBCKT ICV_3 1 2 3 4 5 6 7 8 9 10 11 12 13 14 15 16 22 23
**
M0 1 56 10 1 nshort L=0.15 W=2 AD=0.6 AS=0.6 PD=4.6 PS=4.6 NRD=2.088 NRS=2.088 m=1 sa=75000.2 sb=75000.2 a=0.3 p=4.3
M1 1 57 4 1 nshort L=0.15 W=2 AD=0.6 AS=0.6 PD=4.6 PS=4.6 NRD=2.088 NRS=2.088 m=1 sa=75000.2 sb=75000.2 a=0.3 p=4.3
M2 1 58 11 1 nshort L=0.15 W=2 AD=0.6 AS=0.6 PD=4.6 PS=4.6 NRD=2.088 NRS=2.088 m=1 sa=75000.2 sb=75000.2 a=0.3 p=4.3
M3 1 59 56 1 nshort L=0.15 W=1.68 AD=0.504 AS=0.504 PD=3.96 PS=3.96 NRD=2.496 NRS=2.496 m=1 sa=75000.2 sb=75000.2 a=0.252 p=3.66
M4 1 60 57 1 nshort L=0.15 W=2 AD=0.6 AS=0.6 PD=4.6 PS=4.6 NRD=2.088 NRS=2.088 m=1 sa=75000.2 sb=75000.2 a=0.3 p=4.3
M5 1 61 58 1 nshort L=0.15 W=1.26 AD=0.378 AS=0.378 PD=3.12 PS=3.12 NRD=3.324 NRS=3.324 m=1 sa=75000.2 sb=75000.2 a=0.189 p=2.82
M6 1 62 59 1 nshort L=0.15 W=2 AD=0.6 AS=0.6 PD=4.6 PS=4.6 NRD=2.088 NRS=2.088 m=1 sa=75000.2 sb=75000.2 a=0.3 p=4.3
M7 1 63 60 1 nshort L=0.15 W=1.68 AD=0.504 AS=0.504 PD=3.96 PS=3.96 NRD=2.496 NRS=2.496 m=1 sa=75000.2 sb=75000.2 a=0.252 p=3.66
M8 1 64 61 1 nshort L=0.15 W=0.74 AD=0.222 AS=0.222 PD=2.08 PS=2.08 NRD=5.664 NRS=5.664 m=1 sa=75000.2 sb=75000.2 a=0.111 p=1.78
M9 1 65 75 1 nshort L=0.15 W=1.68 AD=0.504 AS=0.504 PD=3.96 PS=3.96 NRD=2.496 NRS=2.496 m=1 sa=75000.2 sb=75000.2 a=0.252 p=3.66
M10 1 66 62 1 nshort L=0.15 W=0.74 AD=0.222 AS=0.222 PD=2.08 PS=2.08 NRD=5.664 NRS=5.664 m=1 sa=75000.2 sb=75000.2 a=0.111 p=1.78
M11 1 67 63 1 nshort L=0.15 W=1.26 AD=0.378 AS=0.378 PD=3.12 PS=3.12 NRD=3.324 NRS=3.324 m=1 sa=75000.2 sb=75000.2 a=0.189 p=2.82
M12 1 68 12 1 nshort L=0.15 W=2 AD=0.6 AS=0.6 PD=4.6 PS=4.6 NRD=2.088 NRS=2.088 m=1 sa=75000.2 sb=75000.2 a=0.3 p=4.3
M13 1 69 64 1 nshort L=0.15 W=0.36 AD=0.108 AS=0.108 PD=1.32 PS=1.32 NRD=11.664 NRS=11.664 m=1 sa=75000.2 sb=75000.2 a=0.054 p=1.02
M14 91 70 65 1 nshort L=0.15 W=0.74 AD=0.1295 AS=0.222 PD=1.09 PS=2.08 NRD=19.452 NRS=5.664 m=1 sa=75000.2 sb=75000.7 a=0.111 p=1.78
M15 1 71 76 1 nshort L=0.15 W=1.68 AD=0.504 AS=0.504 PD=3.96 PS=3.96 NRD=2.496 NRS=2.496 m=1 sa=75000.2 sb=75000.2 a=0.252 p=3.66
M16 1 72 66 1 nshort L=0.15 W=0.36 AD=0.108 AS=0.108 PD=1.32 PS=1.32 NRD=11.664 NRS=11.664 m=1 sa=75000.2 sb=75000.2 a=0.054 p=1.02
M17 1 73 91 1 nshort L=0.15 W=0.74 AD=0.222 AS=0.1295 PD=2.08 PS=1.09 NRD=5.664 NRS=19.452 m=1 sa=75000.7 sb=75000.2 a=0.111 p=1.78
M18 1 74 67 1 nshort L=0.15 W=0.36 AD=0.108 AS=0.108 PD=1.32 PS=1.32 NRD=11.664 NRS=11.664 m=1 sa=75000.2 sb=75000.2 a=0.054 p=1.02
M19 92 70 68 1 nshort L=0.15 W=0.74 AD=0.1295 AS=0.222 PD=1.09 PS=2.08 NRD=19.452 NRS=5.664 m=1 sa=75000.2 sb=75001.2 a=0.111 p=1.78
M20 93 75 92 1 nshort L=0.15 W=0.74 AD=0.1295 AS=0.1295 PD=1.09 PS=1.09 NRD=19.452 NRS=19.452 m=1 sa=75000.7 sb=75000.7 a=0.111 p=1.78
M21 94 3 69 1 nshort L=0.15 W=0.74 AD=0.1295 AS=0.222 PD=1.09 PS=2.08 NRD=19.452 NRS=5.664 m=1 sa=75000.2 sb=75000.7 a=0.111 p=1.78
M22 95 70 71 1 nshort L=0.15 W=0.74 AD=0.1295 AS=0.222 PD=1.09 PS=2.08 NRD=19.452 NRS=5.664 m=1 sa=75000.2 sb=75000.7 a=0.111 p=1.78
M23 1 3 93 1 nshort L=0.15 W=0.74 AD=0.222 AS=0.1295 PD=2.08 PS=1.09 NRD=5.664 NRS=19.452 m=1 sa=75001.2 sb=75000.2 a=0.111 p=1.78
M24 1 76 94 1 nshort L=0.15 W=0.74 AD=0.222 AS=0.1295 PD=2.08 PS=1.09 NRD=5.664 NRS=19.452 m=1 sa=75000.7 sb=75000.2 a=0.111 p=1.78
M25 1 75 72 1 nshort L=0.15 W=0.36 AD=0.108 AS=0.108 PD=1.32 PS=1.32 NRD=11.664 NRS=11.664 m=1 sa=75000.2 sb=75000.2 a=0.054 p=1.02
M26 1 4 95 1 nshort L=0.15 W=0.74 AD=0.222 AS=0.1295 PD=2.08 PS=1.09 NRD=5.664 NRS=19.452 m=1 sa=75000.7 sb=75000.2 a=0.111 p=1.78
M27 1 4 73 1 nshort L=0.15 W=0.36 AD=0.108 AS=0.108 PD=1.32 PS=1.32 NRD=11.664 NRS=11.664 m=1 sa=75000.2 sb=75000.2 a=0.054 p=1.02
M28 1 5 74 1 nshort L=0.15 W=0.36 AD=0.108 AS=0.108 PD=1.32 PS=1.32 NRD=11.664 NRS=11.664 m=1 sa=75000.2 sb=75000.2 a=0.054 p=1.02
M29 6 7 1 1 nshort L=0.15 W=0.36 AD=0.108 AS=0.108 PD=1.32 PS=1.32 NRD=11.664 NRS=11.664 m=1 sa=75000.2 sb=75000.2 a=0.054 p=1.02
M30 1 70 82 1 nshort L=0.15 W=1.68 AD=0.504 AS=0.504 PD=3.96 PS=3.96 NRD=2.496 NRS=2.496 m=1 sa=75000.2 sb=75000.2 a=0.252 p=3.66
M31 83 6 1 1 nshort L=0.15 W=0.36 AD=0.108 AS=0.108 PD=1.32 PS=1.32 NRD=11.664 NRS=11.664 m=1 sa=75000.2 sb=75000.2 a=0.054 p=1.02
M32 1 77 70 1 nshort L=0.15 W=0.74 AD=0.222 AS=0.222 PD=2.08 PS=2.08 NRD=5.664 NRS=5.664 m=1 sa=75000.2 sb=75000.2 a=0.111 p=1.78
M33 1 78 77 1 nshort L=0.15 W=1 AD=0.265 AS=0.265 PD=2.53 PS=2.53 NRD=0 NRS=0 m=1 sa=75000.2 sb=75000.2 a=0.15 p=2.3
M34 84 6 1 1 nshort L=0.15 W=0.36 AD=0.108 AS=0.108 PD=1.32 PS=1.32 NRD=11.664 NRS=11.664 m=1 sa=75000.2 sb=75000.2 a=0.054 p=1.02
M35 1 4 80 1 nshort L=0.15 W=1 AD=0.14 AS=0.265 PD=1.28 PS=2.53 NRD=0 NRS=0 m=1 sa=75000.2 sb=75004.1 a=0.15 p=2.3
M36 96 77 1 1 nshort L=0.15 W=1 AD=0.105 AS=0.14 PD=1.21 PS=1.28 NRD=5.988 NRS=0 m=1 sa=75000.6 sb=75003.7 a=0.15 p=2.3
M37 78 80 96 1 nshort L=0.15 W=1 AD=0.225 AS=0.105 PD=1.45 PS=1.21 NRD=10.188 NRS=5.988 m=1 sa=75001 sb=75003.3 a=0.15 p=2.3
M38 86 6 1 1 nshort L=0.15 W=0.36 AD=0.108 AS=0.108 PD=1.32 PS=1.32 NRD=11.664 NRS=11.664 m=1 sa=75000.2 sb=75000.2 a=0.054 p=1.02
M39 97 4 78 1 nshort L=0.15 W=1 AD=0.105 AS=0.225 PD=1.21 PS=1.45 NRD=5.988 NRS=10.188 m=1 sa=75001.6 sb=75002.7 a=0.15 p=2.3
M40 1 79 97 1 nshort L=0.15 W=1 AD=0.14 AS=0.105 PD=1.28 PS=1.21 NRD=0 NRS=5.988 m=1 sa=75001.9 sb=75002.4 a=0.15 p=2.3
M41 98 79 1 1 nshort L=0.15 W=1 AD=0.105 AS=0.14 PD=1.21 PS=1.28 NRD=5.988 NRS=0 m=1 sa=75002.4 sb=75001.9 a=0.15 p=2.3
M42 81 4 98 1 nshort L=0.15 W=1 AD=0.225 AS=0.105 PD=1.45 PS=1.21 NRD=10.188 NRS=5.988 m=1 sa=75002.7 sb=75001.6 a=0.15 p=2.3
M43 99 80 81 1 nshort L=0.15 W=1 AD=0.105 AS=0.225 PD=1.21 PS=1.45 NRD=5.988 NRS=10.188 m=1 sa=75003.3 sb=75001 a=0.15 p=2.3
M44 90 6 1 1 nshort L=0.15 W=0.36 AD=0.108 AS=0.108 PD=1.32 PS=1.32 NRD=11.664 NRS=11.664 m=1 sa=75000.2 sb=75000.2 a=0.054 p=1.02
M45 1 9 99 1 nshort L=0.15 W=1 AD=0.14 AS=0.105 PD=1.28 PS=1.21 NRD=0 NRS=5.988 m=1 sa=75003.7 sb=75000.6 a=0.15 p=2.3
M46 79 81 1 1 nshort L=0.15 W=1 AD=0.265 AS=0.14 PD=2.53 PS=1.28 NRD=0 NRS=0 m=1 sa=75004.1 sb=75000.2 a=0.15 p=2.3
M47 2 56 10 2 pshort L=0.15 W=2 AD=0.6 AS=0.6 PD=4.6 PS=4.6 NRD=3.4278 NRS=3.4278 m=1 sa=75000.2 sb=75000.2 a=0.3 p=4.3
M48 2 57 4 2 pshort L=0.15 W=2 AD=0.6 AS=0.6 PD=4.6 PS=4.6 NRD=3.4278 NRS=3.4278 m=1 sa=75000.2 sb=75000.2 a=0.3 p=4.3
M49 2 58 11 2 pshort L=0.15 W=2 AD=0.6 AS=0.6 PD=4.6 PS=4.6 NRD=3.4278 NRS=3.4278 m=1 sa=75000.2 sb=75000.2 a=0.3 p=4.3
M50 2 59 56 2 pshort L=0.15 W=2 AD=0.6 AS=0.6 PD=4.6 PS=4.6 NRD=3.4278 NRS=3.4278 m=1 sa=75000.2 sb=75000.2 a=0.3 p=4.3
M51 2 60 57 2 pshort L=0.15 W=2 AD=0.6 AS=0.6 PD=4.6 PS=4.6 NRD=3.4278 NRS=3.4278 m=1 sa=75000.2 sb=75000.2 a=0.3 p=4.3
M52 2 61 58 2 pshort L=0.15 W=2 AD=0.6 AS=0.6 PD=4.6 PS=4.6 NRD=3.4278 NRS=3.4278 m=1 sa=75000.2 sb=75000.2 a=0.3 p=4.3
M53 2 62 59 2 pshort L=0.15 W=2 AD=0.6 AS=0.6 PD=4.6 PS=4.6 NRD=3.4278 NRS=3.4278 m=1 sa=75000.2 sb=75000.2 a=0.3 p=4.3
M54 2 63 60 2 pshort L=0.15 W=2 AD=0.6 AS=0.6 PD=4.6 PS=4.6 NRD=3.4278 NRS=3.4278 m=1 sa=75000.2 sb=75000.2 a=0.3 p=4.3
M55 2 64 61 2 pshort L=0.15 W=1.12 AD=0.336 AS=0.336 PD=2.84 PS=2.84 NRD=6.1464 NRS=6.1464 m=1 sa=75000.2 sb=75000.2 a=0.168 p=2.54
M56 2 65 75 2 pshort L=0.15 W=2 AD=0.6 AS=0.6 PD=4.6 PS=4.6 NRD=3.4278 NRS=3.4278 m=1 sa=75000.2 sb=75000.2 a=0.3 p=4.3
M57 2 66 62 2 pshort L=0.15 W=1.12 AD=0.336 AS=0.336 PD=2.84 PS=2.84 NRD=6.1464 NRS=6.1464 m=1 sa=75000.2 sb=75000.2 a=0.168 p=2.54
M58 2 67 63 2 pshort L=0.15 W=1.65 AD=0.495 AS=0.495 PD=3.9 PS=3.9 NRD=4.1764 NRS=4.1764 m=1 sa=75000.2 sb=75000.2 a=0.2475 p=3.6
M59 2 68 12 2 pshort L=0.15 W=2 AD=0.6 AS=0.6 PD=4.6 PS=4.6 NRD=3.4278 NRS=3.4278 m=1 sa=75000.2 sb=75000.2 a=0.3 p=4.3
M60 2 69 64 2 pshort L=0.15 W=1.12 AD=0.336 AS=0.336 PD=2.84 PS=2.84 NRD=6.1464 NRS=6.1464 m=1 sa=75000.2 sb=75000.2 a=0.168 p=2.54
M61 65 70 2 2 pshort L=0.15 W=1.12 AD=0.196 AS=0.336 PD=1.47 PS=2.84 NRD=6.1464 NRS=6.1464 m=1 sa=75000.2 sb=75000.7 a=0.168 p=2.54
M62 2 71 76 2 pshort L=0.15 W=2 AD=0.6 AS=0.6 PD=4.6 PS=4.6 NRD=3.4278 NRS=3.4278 m=1 sa=75000.2 sb=75000.2 a=0.3 p=4.3
M63 2 72 66 2 pshort L=0.15 W=1.12 AD=0.336 AS=0.336 PD=2.84 PS=2.84 NRD=6.1464 NRS=6.1464 m=1 sa=75000.2 sb=75000.2 a=0.168 p=2.54
M64 2 73 65 2 pshort L=0.15 W=1.12 AD=0.336 AS=0.196 PD=2.84 PS=1.47 NRD=6.1464 NRS=6.1464 m=1 sa=75000.7 sb=75000.2 a=0.168 p=2.54
M65 2 74 67 2 pshort L=0.15 W=1.12 AD=0.336 AS=0.336 PD=2.84 PS=2.84 NRD=6.1464 NRS=6.1464 m=1 sa=75000.2 sb=75000.2 a=0.168 p=2.54
M66 2 70 68 2 pshort L=0.15 W=1.12 AD=0.196 AS=0.336 PD=1.47 PS=2.84 NRD=6.1464 NRS=6.1464 m=1 sa=75000.2 sb=75001.2 a=0.168 p=2.54
M67 68 75 2 2 pshort L=0.15 W=1.12 AD=0.196 AS=0.196 PD=1.47 PS=1.47 NRD=6.1464 NRS=6.1464 m=1 sa=75000.7 sb=75000.7 a=0.168 p=2.54
M68 69 3 2 2 pshort L=0.15 W=1.12 AD=0.196 AS=0.336 PD=1.47 PS=2.84 NRD=6.1464 NRS=6.1464 m=1 sa=75000.2 sb=75000.7 a=0.168 p=2.54
M69 71 70 2 2 pshort L=0.15 W=1.12 AD=0.196 AS=0.336 PD=1.47 PS=2.84 NRD=6.1464 NRS=6.1464 m=1 sa=75000.2 sb=75000.7 a=0.168 p=2.54
M70 2 3 68 2 pshort L=0.15 W=1.12 AD=0.336 AS=0.196 PD=2.84 PS=1.47 NRD=6.1464 NRS=6.1464 m=1 sa=75001.2 sb=75000.2 a=0.168 p=2.54
M71 2 76 69 2 pshort L=0.15 W=1.12 AD=0.336 AS=0.196 PD=2.84 PS=1.47 NRD=6.1464 NRS=6.1464 m=1 sa=75000.7 sb=75000.2 a=0.168 p=2.54
M72 2 75 72 2 pshort L=0.15 W=1.12 AD=0.336 AS=0.336 PD=2.84 PS=2.84 NRD=6.1464 NRS=6.1464 m=1 sa=75000.2 sb=75000.2 a=0.168 p=2.54
M73 2 4 71 2 pshort L=0.15 W=1.12 AD=0.336 AS=0.196 PD=2.84 PS=1.47 NRD=6.1464 NRS=6.1464 m=1 sa=75000.7 sb=75000.2 a=0.168 p=2.54
M74 2 4 73 2 pshort L=0.15 W=1.12 AD=0.336 AS=0.336 PD=2.84 PS=2.84 NRD=6.1464 NRS=6.1464 m=1 sa=75000.2 sb=75000.2 a=0.168 p=2.54
M75 2 5 74 2 pshort L=0.15 W=1.12 AD=0.336 AS=0.336 PD=2.84 PS=2.84 NRD=6.1464 NRS=6.1464 m=1 sa=75000.2 sb=75000.2 a=0.168 p=2.54
M76 8 6 2 2 pshort L=0.15 W=1.12 AD=0.336 AS=0.336 PD=2.84 PS=2.84 NRD=6.1464 NRS=6.1464 m=1 sa=75000.2 sb=75000.2 a=0.168 p=2.54
M77 6 7 2 2 pshort L=0.15 W=1.12 AD=0.336 AS=0.336 PD=2.84 PS=2.84 NRD=6.1464 NRS=6.1464 m=1 sa=75000.2 sb=75000.2 a=0.168 p=2.54
M78 2 70 82 2 pshort L=0.15 W=1.65 AD=0.495 AS=0.495 PD=3.9 PS=3.9 NRD=4.1764 NRS=4.1764 m=1 sa=75000.2 sb=75000.2 a=0.2475 p=3.6
M79 13 8 2 2 pshort L=0.15 W=1.12 AD=0.336 AS=0.336 PD=2.84 PS=2.84 NRD=6.1464 NRS=6.1464 m=1 sa=75000.2 sb=75000.2 a=0.168 p=2.54
M80 83 6 2 2 pshort L=0.15 W=1.12 AD=0.336 AS=0.336 PD=2.84 PS=2.84 NRD=6.1464 NRS=6.1464 m=1 sa=75000.2 sb=75000.2 a=0.168 p=2.54
M81 2 77 70 2 pshort L=0.15 W=1.12 AD=0.336 AS=0.336 PD=2.84 PS=2.84 NRD=6.1464 NRS=6.1464 m=1 sa=75000.2 sb=75000.2 a=0.168 p=2.54
M82 2 78 77 2 pshort L=0.15 W=3 AD=0.795 AS=0.795 PD=6.53 PS=6.53 NRD=0 NRS=0 m=1 sa=75000.2 sb=75000.2 a=0.45 p=6.3
M83 14 8 2 2 pshort L=0.15 W=1.12 AD=0.336 AS=0.336 PD=2.84 PS=2.84 NRD=6.1464 NRS=6.1464 m=1 sa=75000.2 sb=75000.2 a=0.168 p=2.54
M84 84 6 2 2 pshort L=0.15 W=1.12 AD=0.336 AS=0.336 PD=2.84 PS=2.84 NRD=6.1464 NRS=6.1464 m=1 sa=75000.2 sb=75000.2 a=0.168 p=2.54
M85 2 4 80 2 pshort L=0.15 W=3 AD=0.42 AS=0.795 PD=3.28 PS=6.53 NRD=0 NRS=0 m=1 sa=75000.2 sb=75004.1 a=0.45 p=6.3
M86 85 77 2 2 pshort L=0.15 W=3 AD=0.315 AS=0.42 PD=3.21 PS=3.28 NRD=3.2702 NRS=0 m=1 sa=75000.6 sb=75003.7 a=0.45 p=6.3
M87 78 4 85 2 pshort L=0.15 W=3 AD=0.675 AS=0.315 PD=3.45 PS=3.21 NRD=5.5751 NRS=3.2702 m=1 sa=75001 sb=75003.3 a=0.45 p=6.3
M88 15 8 2 2 pshort L=0.15 W=1.12 AD=0.336 AS=0.336 PD=2.84 PS=2.84 NRD=6.1464 NRS=6.1464 m=1 sa=75000.2 sb=75000.2 a=0.168 p=2.54
M89 86 6 2 2 pshort L=0.15 W=1.12 AD=0.336 AS=0.336 PD=2.84 PS=2.84 NRD=6.1464 NRS=6.1464 m=1 sa=75000.2 sb=75000.2 a=0.168 p=2.54
M90 87 80 78 2 pshort L=0.15 W=3 AD=0.315 AS=0.675 PD=3.21 PS=3.45 NRD=3.2702 NRS=5.5751 m=1 sa=75001.6 sb=75002.7 a=0.45 p=6.3
M91 2 79 87 2 pshort L=0.15 W=3 AD=0.42 AS=0.315 PD=3.28 PS=3.21 NRD=0 NRS=3.2702 m=1 sa=75001.9 sb=75002.4 a=0.45 p=6.3
M92 88 79 2 2 pshort L=0.15 W=3 AD=0.315 AS=0.42 PD=3.21 PS=3.28 NRD=3.2702 NRS=0 m=1 sa=75002.4 sb=75001.9 a=0.45 p=6.3
M93 81 80 88 2 pshort L=0.15 W=3 AD=0.675 AS=0.315 PD=3.45 PS=3.21 NRD=5.5751 NRS=3.2702 m=1 sa=75002.7 sb=75001.6 a=0.45 p=6.3
M94 89 4 81 2 pshort L=0.15 W=3 AD=0.315 AS=0.675 PD=3.21 PS=3.45 NRD=3.2702 NRS=5.5751 m=1 sa=75003.3 sb=75001 a=0.45 p=6.3
M95 16 8 2 2 pshort L=0.15 W=1.12 AD=0.336 AS=0.336 PD=2.84 PS=2.84 NRD=6.1464 NRS=6.1464 m=1 sa=75000.2 sb=75000.2 a=0.168 p=2.54
M96 90 6 2 2 pshort L=0.15 W=1.12 AD=0.336 AS=0.336 PD=2.84 PS=2.84 NRD=6.1464 NRS=6.1464 m=1 sa=75000.2 sb=75000.2 a=0.168 p=2.54
M97 2 9 89 2 pshort L=0.15 W=3 AD=0.42 AS=0.315 PD=3.28 PS=3.21 NRD=0 NRS=3.2702 m=1 sa=75003.7 sb=75000.6 a=0.45 p=6.3
M98 79 81 2 2 pshort L=0.15 W=3 AD=0.795 AS=0.42 PD=6.53 PS=3.28 NRD=0 NRS=0 m=1 sa=75004.1 sb=75000.2 a=0.45 p=6.3
X99 1 2 Dpar a=23.4136 p=19.75 m=1 $[nwdiode]
X100 1 2 Dpar a=48.8637 p=31.52 m=1 $[nwdiode]
X101 1 2 Dpar a=48.1191 p=32 m=1 $[nwdiode]
X102 1 2 Dpar a=54.3567 p=32 m=1 $[nwdiode]
X103 1 2 Dpar a=39.2544 p=27.79 m=1 $[nwdiode]
X104 1 2 Dpar a=55.6392 p=30.76 m=1 $[nwdiode]
X105 1 2 23 4 22 col_addr_dff $T=342190 449135 1 0
.ENDS
***************************************
.SUBCKT ICV_4 1 2 3 4 5 6 7 8 9
**
M0 5 19 1 1 nshort L=0.15 W=0.36 AD=0.108 AS=0.108 PD=1.32 PS=1.32 NRD=11.664 NRS=11.664 m=1 sa=75000.2 sb=75000.2 a=0.054 p=1.02
M1 19 20 1 1 nshort L=0.15 W=0.36 AD=0.108 AS=0.108 PD=1.32 PS=1.32 NRD=11.664 NRS=11.664 m=1 sa=75000.2 sb=75000.2 a=0.054 p=1.02
M2 20 21 1 1 nshort L=0.15 W=0.36 AD=0.108 AS=0.108 PD=1.32 PS=1.32 NRD=11.664 NRS=11.664 m=1 sa=75000.2 sb=75000.2 a=0.054 p=1.02
M3 21 22 1 1 nshort L=0.15 W=0.36 AD=0.108 AS=0.108 PD=1.32 PS=1.32 NRD=11.664 NRS=11.664 m=1 sa=75000.2 sb=75000.2 a=0.054 p=1.02
M4 22 23 1 1 nshort L=0.15 W=0.36 AD=0.108 AS=0.108 PD=1.32 PS=1.32 NRD=11.664 NRS=11.664 m=1 sa=75000.2 sb=75000.2 a=0.054 p=1.02
M5 23 24 1 1 nshort L=0.15 W=0.36 AD=0.108 AS=0.108 PD=1.32 PS=1.32 NRD=11.664 NRS=11.664 m=1 sa=75000.2 sb=75000.2 a=0.054 p=1.02
M6 24 3 1 1 nshort L=0.15 W=0.36 AD=0.108 AS=0.108 PD=1.32 PS=1.32 NRD=11.664 NRS=11.664 m=1 sa=75000.2 sb=75000.2 a=0.054 p=1.02
M7 3 4 1 1 nshort L=0.15 W=0.36 AD=0.108 AS=0.108 PD=1.32 PS=1.32 NRD=11.664 NRS=11.664 m=1 sa=75000.2 sb=75000.2 a=0.054 p=1.02
M8 25 5 1 1 nshort L=0.15 W=0.36 AD=0.108 AS=0.108 PD=1.32 PS=1.32 NRD=11.664 NRS=11.664 m=1 sa=75000.2 sb=75000.2 a=0.054 p=1.02
M9 26 19 1 1 nshort L=0.15 W=0.36 AD=0.108 AS=0.108 PD=1.32 PS=1.32 NRD=11.664 NRS=11.664 m=1 sa=75000.2 sb=75000.2 a=0.054 p=1.02
M10 27 20 1 1 nshort L=0.15 W=0.36 AD=0.108 AS=0.108 PD=1.32 PS=1.32 NRD=11.664 NRS=11.664 m=1 sa=75000.2 sb=75000.2 a=0.054 p=1.02
M11 28 21 1 1 nshort L=0.15 W=0.36 AD=0.108 AS=0.108 PD=1.32 PS=1.32 NRD=11.664 NRS=11.664 m=1 sa=75000.2 sb=75000.2 a=0.054 p=1.02
M12 29 22 1 1 nshort L=0.15 W=0.36 AD=0.108 AS=0.108 PD=1.32 PS=1.32 NRD=11.664 NRS=11.664 m=1 sa=75000.2 sb=75000.2 a=0.054 p=1.02
M13 30 23 1 1 nshort L=0.15 W=0.36 AD=0.108 AS=0.108 PD=1.32 PS=1.32 NRD=11.664 NRS=11.664 m=1 sa=75000.2 sb=75000.2 a=0.054 p=1.02
M14 31 24 1 1 nshort L=0.15 W=0.36 AD=0.108 AS=0.108 PD=1.32 PS=1.32 NRD=11.664 NRS=11.664 m=1 sa=75000.2 sb=75000.2 a=0.054 p=1.02
M15 6 3 1 1 nshort L=0.15 W=0.36 AD=0.108 AS=0.108 PD=1.32 PS=1.32 NRD=11.664 NRS=11.664 m=1 sa=75000.2 sb=75000.2 a=0.054 p=1.02
M16 32 5 1 1 nshort L=0.15 W=0.36 AD=0.108 AS=0.108 PD=1.32 PS=1.32 NRD=11.664 NRS=11.664 m=1 sa=75000.2 sb=75000.2 a=0.054 p=1.02
M17 33 19 1 1 nshort L=0.15 W=0.36 AD=0.108 AS=0.108 PD=1.32 PS=1.32 NRD=11.664 NRS=11.664 m=1 sa=75000.2 sb=75000.2 a=0.054 p=1.02
M18 34 20 1 1 nshort L=0.15 W=0.36 AD=0.108 AS=0.108 PD=1.32 PS=1.32 NRD=11.664 NRS=11.664 m=1 sa=75000.2 sb=75000.2 a=0.054 p=1.02
M19 35 21 1 1 nshort L=0.15 W=0.36 AD=0.108 AS=0.108 PD=1.32 PS=1.32 NRD=11.664 NRS=11.664 m=1 sa=75000.2 sb=75000.2 a=0.054 p=1.02
M20 36 22 1 1 nshort L=0.15 W=0.36 AD=0.108 AS=0.108 PD=1.32 PS=1.32 NRD=11.664 NRS=11.664 m=1 sa=75000.2 sb=75000.2 a=0.054 p=1.02
M21 37 23 1 1 nshort L=0.15 W=0.36 AD=0.108 AS=0.108 PD=1.32 PS=1.32 NRD=11.664 NRS=11.664 m=1 sa=75000.2 sb=75000.2 a=0.054 p=1.02
M22 38 24 1 1 nshort L=0.15 W=0.36 AD=0.108 AS=0.108 PD=1.32 PS=1.32 NRD=11.664 NRS=11.664 m=1 sa=75000.2 sb=75000.2 a=0.054 p=1.02
M23 7 3 1 1 nshort L=0.15 W=0.36 AD=0.108 AS=0.108 PD=1.32 PS=1.32 NRD=11.664 NRS=11.664 m=1 sa=75000.2 sb=75000.2 a=0.054 p=1.02
M24 39 5 1 1 nshort L=0.15 W=0.36 AD=0.108 AS=0.108 PD=1.32 PS=1.32 NRD=11.664 NRS=11.664 m=1 sa=75000.2 sb=75000.2 a=0.054 p=1.02
M25 40 19 1 1 nshort L=0.15 W=0.36 AD=0.108 AS=0.108 PD=1.32 PS=1.32 NRD=11.664 NRS=11.664 m=1 sa=75000.2 sb=75000.2 a=0.054 p=1.02
M26 41 20 1 1 nshort L=0.15 W=0.36 AD=0.108 AS=0.108 PD=1.32 PS=1.32 NRD=11.664 NRS=11.664 m=1 sa=75000.2 sb=75000.2 a=0.054 p=1.02
M27 42 21 1 1 nshort L=0.15 W=0.36 AD=0.108 AS=0.108 PD=1.32 PS=1.32 NRD=11.664 NRS=11.664 m=1 sa=75000.2 sb=75000.2 a=0.054 p=1.02
M28 43 22 1 1 nshort L=0.15 W=0.36 AD=0.108 AS=0.108 PD=1.32 PS=1.32 NRD=11.664 NRS=11.664 m=1 sa=75000.2 sb=75000.2 a=0.054 p=1.02
M29 44 23 1 1 nshort L=0.15 W=0.36 AD=0.108 AS=0.108 PD=1.32 PS=1.32 NRD=11.664 NRS=11.664 m=1 sa=75000.2 sb=75000.2 a=0.054 p=1.02
M30 45 24 1 1 nshort L=0.15 W=0.36 AD=0.108 AS=0.108 PD=1.32 PS=1.32 NRD=11.664 NRS=11.664 m=1 sa=75000.2 sb=75000.2 a=0.054 p=1.02
M31 8 3 1 1 nshort L=0.15 W=0.36 AD=0.108 AS=0.108 PD=1.32 PS=1.32 NRD=11.664 NRS=11.664 m=1 sa=75000.2 sb=75000.2 a=0.054 p=1.02
M32 46 5 1 1 nshort L=0.15 W=0.36 AD=0.108 AS=0.108 PD=1.32 PS=1.32 NRD=11.664 NRS=11.664 m=1 sa=75000.2 sb=75000.2 a=0.054 p=1.02
M33 47 19 1 1 nshort L=0.15 W=0.36 AD=0.108 AS=0.108 PD=1.32 PS=1.32 NRD=11.664 NRS=11.664 m=1 sa=75000.2 sb=75000.2 a=0.054 p=1.02
M34 48 20 1 1 nshort L=0.15 W=0.36 AD=0.108 AS=0.108 PD=1.32 PS=1.32 NRD=11.664 NRS=11.664 m=1 sa=75000.2 sb=75000.2 a=0.054 p=1.02
M35 49 21 1 1 nshort L=0.15 W=0.36 AD=0.108 AS=0.108 PD=1.32 PS=1.32 NRD=11.664 NRS=11.664 m=1 sa=75000.2 sb=75000.2 a=0.054 p=1.02
M36 50 22 1 1 nshort L=0.15 W=0.36 AD=0.108 AS=0.108 PD=1.32 PS=1.32 NRD=11.664 NRS=11.664 m=1 sa=75000.2 sb=75000.2 a=0.054 p=1.02
M37 51 23 1 1 nshort L=0.15 W=0.36 AD=0.108 AS=0.108 PD=1.32 PS=1.32 NRD=11.664 NRS=11.664 m=1 sa=75000.2 sb=75000.2 a=0.054 p=1.02
M38 52 24 1 1 nshort L=0.15 W=0.36 AD=0.108 AS=0.108 PD=1.32 PS=1.32 NRD=11.664 NRS=11.664 m=1 sa=75000.2 sb=75000.2 a=0.054 p=1.02
M39 9 3 1 1 nshort L=0.15 W=0.36 AD=0.108 AS=0.108 PD=1.32 PS=1.32 NRD=11.664 NRS=11.664 m=1 sa=75000.2 sb=75000.2 a=0.054 p=1.02
M40 5 19 2 2 pshort L=0.15 W=1.12 AD=0.336 AS=0.336 PD=2.84 PS=2.84 NRD=6.1464 NRS=6.1464 m=1 sa=75000.2 sb=75000.2 a=0.168 p=2.54
M41 19 20 2 2 pshort L=0.15 W=1.12 AD=0.336 AS=0.336 PD=2.84 PS=2.84 NRD=6.1464 NRS=6.1464 m=1 sa=75000.2 sb=75000.2 a=0.168 p=2.54
M42 20 21 2 2 pshort L=0.15 W=1.12 AD=0.336 AS=0.336 PD=2.84 PS=2.84 NRD=6.1464 NRS=6.1464 m=1 sa=75000.2 sb=75000.2 a=0.168 p=2.54
M43 21 22 2 2 pshort L=0.15 W=1.12 AD=0.336 AS=0.336 PD=2.84 PS=2.84 NRD=6.1464 NRS=6.1464 m=1 sa=75000.2 sb=75000.2 a=0.168 p=2.54
M44 22 23 2 2 pshort L=0.15 W=1.12 AD=0.336 AS=0.336 PD=2.84 PS=2.84 NRD=6.1464 NRS=6.1464 m=1 sa=75000.2 sb=75000.2 a=0.168 p=2.54
M45 23 24 2 2 pshort L=0.15 W=1.12 AD=0.336 AS=0.336 PD=2.84 PS=2.84 NRD=6.1464 NRS=6.1464 m=1 sa=75000.2 sb=75000.2 a=0.168 p=2.54
M46 24 3 2 2 pshort L=0.15 W=1.12 AD=0.336 AS=0.336 PD=2.84 PS=2.84 NRD=6.1464 NRS=6.1464 m=1 sa=75000.2 sb=75000.2 a=0.168 p=2.54
M47 25 5 2 2 pshort L=0.15 W=1.12 AD=0.336 AS=0.336 PD=2.84 PS=2.84 NRD=6.1464 NRS=6.1464 m=1 sa=75000.2 sb=75000.2 a=0.168 p=2.54
M48 26 19 2 2 pshort L=0.15 W=1.12 AD=0.336 AS=0.336 PD=2.84 PS=2.84 NRD=6.1464 NRS=6.1464 m=1 sa=75000.2 sb=75000.2 a=0.168 p=2.54
M49 27 20 2 2 pshort L=0.15 W=1.12 AD=0.336 AS=0.336 PD=2.84 PS=2.84 NRD=6.1464 NRS=6.1464 m=1 sa=75000.2 sb=75000.2 a=0.168 p=2.54
M50 28 21 2 2 pshort L=0.15 W=1.12 AD=0.336 AS=0.336 PD=2.84 PS=2.84 NRD=6.1464 NRS=6.1464 m=1 sa=75000.2 sb=75000.2 a=0.168 p=2.54
M51 29 22 2 2 pshort L=0.15 W=1.12 AD=0.336 AS=0.336 PD=2.84 PS=2.84 NRD=6.1464 NRS=6.1464 m=1 sa=75000.2 sb=75000.2 a=0.168 p=2.54
M52 30 23 2 2 pshort L=0.15 W=1.12 AD=0.336 AS=0.336 PD=2.84 PS=2.84 NRD=6.1464 NRS=6.1464 m=1 sa=75000.2 sb=75000.2 a=0.168 p=2.54
M53 31 24 2 2 pshort L=0.15 W=1.12 AD=0.336 AS=0.336 PD=2.84 PS=2.84 NRD=6.1464 NRS=6.1464 m=1 sa=75000.2 sb=75000.2 a=0.168 p=2.54