* SPICE NETLIST
***************************************

.SUBCKT MN g s d b
.ENDS
***************************************
.SUBCKT MP g s d b
.ENDS
***************************************
.SUBCKT condiode pin0 pin1
.ENDS
***************************************
.SUBCKT condiodeHvPsub pin0 pin1
.ENDS
***************************************
.SUBCKT nvhv pin0 pin1 pin2 pin3
.ENDS
***************************************
.SUBCKT n20vhv1 pin0 pin1 pin2 pin3
.ENDS
***************************************
.SUBCKT n20nativevhv1 pin0 pin1 pin2 pin3
.ENDS
***************************************
.SUBCKT n20vhviso1 pin0 pin1 pin2 pin3 pin4
.ENDS
***************************************
.SUBCKT n20nativevhviso1 pin0 pin1 pin2 pin3 pin4
.ENDS
***************************************
.SUBCKT pvhv pin0 pin1 pin2 pin3
.ENDS
***************************************
.SUBCKT p20vhv1 pin0 pin1 pin2 pin3
.ENDS
***************************************
.SUBCKT xcnwvc pin0 pin1 pin2
.ENDS
***************************************
.SUBCKT xcnwvc2 pin0 pin1 pin2
.ENDS
***************************************
.SUBCKT xchvnwc pin0 pin1 pin2
.ENDS
***************************************
.SUBCKT Dpar d0 d1
.ENDS
***************************************
.SUBCKT xcmvpp pin0 pin1 pin2
.ENDS
***************************************
.SUBCKT xcmvpp_2 pin0 pin1 pin2
.ENDS
***************************************
.SUBCKT xcmvpp2_nhvnative10x4 pin0 pin1 pin2
.ENDS
***************************************
.SUBCKT xcmvpp2_phv5x4 pin0 pin1 pin2
.ENDS
***************************************
.SUBCKT xcmvpp_hd5_atlas_fingercap2_l5 pin0 pin1 pin2
.ENDS
***************************************
.SUBCKT xcmvpp_hd5_atlas_wafflecap2 pin0 pin1 pin2
.ENDS
***************************************
.SUBCKT xcmvpp_hd5_atlas_wafflecap1 pin0 pin1 pin2
.ENDS
***************************************
.SUBCKT xcmvpp_hd5_atlas_fingercap_l40 pin0 pin1 pin2
.ENDS
***************************************
.SUBCKT xcmvpp_hd5_atlas_fingercap_l20 pin0 pin1 pin2
.ENDS
***************************************
.SUBCKT xcmvpp_hd5_atlas_fingercap_l10 pin0 pin1 pin2
.ENDS
***************************************
.SUBCKT xcmvpp_hd5_atlas_fingercap_l5 pin0 pin1 pin2
.ENDS
***************************************
.SUBCKT xcmvpp_hd5_5x2_met5pullin pin0 pin1 pin2
.ENDS
***************************************
.SUBCKT xcmvpp_hd5_5x2 pin0 pin1 pin2
.ENDS
***************************************
.SUBCKT xcmvpp_hd5_5x1_met5pullin pin0 pin1 pin2
.ENDS
***************************************
.SUBCKT xcmvpp_hd5_5x1 pin0 pin1 pin2
.ENDS
***************************************
.SUBCKT xcmvpp_hd5_4x2 pin0 pin1 pin2
.ENDS
***************************************
.SUBCKT xcmvpp_hd5_4x1 pin0 pin1 pin2
.ENDS
***************************************
.SUBCKT xcmvpp_hd5_3x2 pin0 pin1 pin2
.ENDS
***************************************
.SUBCKT xcmvpp_hd5_3x1 pin0 pin1 pin2
.ENDS
***************************************
.SUBCKT xcmvpp_hd5_2x2 pin0 pin1 pin2
.ENDS
***************************************
.SUBCKT xcmvpp_hd5_2x1 pin0 pin1 pin2
.ENDS
***************************************
.SUBCKT xcmvpp_hd5_1x2 pin0 pin1 pin2
.ENDS
***************************************
.SUBCKT xcmvpp_hd5_1x1 pin0 pin1 pin2
.ENDS
***************************************
.SUBCKT xcmvppx4_2xnhvnative10x4 pin0 pin1 pin2 pin3
.ENDS
***************************************
.SUBCKT xcmvpp11p5x11p7_polym50p4shield pin0 pin1 pin2 pin3
.ENDS
***************************************
.SUBCKT xcmvpp4p4x4p6_m3_lim5shield pin0 pin1 pin2 pin3
.ENDS
***************************************
.SUBCKT xcmvpp11p5x11p7_m3_lim5shield pin0 pin1 pin2 pin3
.ENDS
***************************************
.SUBCKT xcmvpp8p6x7p9_m3_lim5shield pin0 pin1 pin2 pin3
.ENDS
***************************************
.SUBCKT xcmvpp11p5x11p7_lim5shield pin0 pin1 pin2 pin3
.ENDS
***************************************
.SUBCKT xcmvpp11p5x11p7_polym5shield pin0 pin1 pin2 pin3
.ENDS
***************************************
.SUBCKT xcmvpp11p5x11p7_m5shield pin0 pin1 pin2 pin3
.ENDS
***************************************
.SUBCKT xcmvpp6p8x6p1_lim4shield pin0 pin1 pin2 pin3
.ENDS
***************************************
.SUBCKT xcmvpp6p8x6p1_polym4shield pin0 pin1 pin2 pin3
.ENDS
***************************************
.SUBCKT xcmvpp11p5x11p7_polym4shield pin0 pin1 pin2 pin3
.ENDS
***************************************
.SUBCKT xcmvpp11p5x11p7_m4shield pin0 pin1 pin2 pin3
.ENDS
***************************************
.SUBCKT xcmvpp1p8x1p8 pin0 pin1 pin2
.ENDS
***************************************
.SUBCKT xcmvpp4p4x4p6_m3_lishield pin0 pin1 pin2
.ENDS
***************************************
.SUBCKT xcmvpp8p6x7p9_m3_lishield pin0 pin1 pin2
.ENDS
***************************************
.SUBCKT xcmvpp11p5x11p7_m3_lishield pin0 pin1 pin2
.ENDS
***************************************
.SUBCKT xcmvpp11p5x11p7_m3shield c0 c1 b term4
.ENDS
***************************************
.SUBCKT xcmvpp8p6x7p9_m3shield c0 c1 b term4
.ENDS
***************************************
.SUBCKT xcmvpp4p4x4p6_m3shield c0 c1 b term4
.ENDS
***************************************
.SUBCKT xcmvpp1p8x1p8_m3shield c0 c1 b term4
.ENDS
***************************************
.SUBCKT xcmvpp11p5x11p7_m1m4m5shield pin0 pin1 pin2 pin3
.ENDS
***************************************
.SUBCKT xcmvpp11p5x11p7_m1m4 pin0 pin1 pin2
.ENDS
***************************************
.SUBCKT xcmvpp11p5x11p7_m1m2 pin0 pin1 pin2
.ENDS
***************************************
.SUBCKT xcmvpp4p4x4p6_m1m2 pin0 pin1 pin2
.ENDS
***************************************
.SUBCKT xcmvpp5 pin0 pin1 pin2
.ENDS
***************************************
.SUBCKT xcmvpp4 pin0 pin1 pin2
.ENDS
***************************************
.SUBCKT xcmvpp3 pin0 pin1 pin2
.ENDS
***************************************
.SUBCKT balun pin0 pin1 pin2 pin3 pin4 pin5
.ENDS
***************************************
.SUBCKT ind4 pin0 pin1 pin2 pin3
.ENDS
***************************************
.SUBCKT xhrpoly_0p35 POS NEG SUB
.ENDS
***************************************
.SUBCKT xuhrpoly_0p35 POS NEG SUB
.ENDS
***************************************
.SUBCKT xhrpoly_0p69 POS NEG SUB
.ENDS
***************************************
.SUBCKT xuhrpoly_0p69 POS NEG SUB
.ENDS
***************************************
.SUBCKT xhrpoly_1p41 POS NEG SUB
.ENDS
***************************************
.SUBCKT xuhrpoly_1p41 POS NEG SUB
.ENDS
***************************************
.SUBCKT xhrpoly_2p85 POS NEG SUB
.ENDS
***************************************
.SUBCKT xuhrpoly_2p85 POS NEG SUB
.ENDS
***************************************
.SUBCKT xhrpoly_5p73 POS NEG SUB
.ENDS
***************************************
.SUBCKT xuhrpoly_5p73 POS NEG SUB
.ENDS
***************************************
.SUBCKT Probe probe conductor
.ENDS
***************************************
.SUBCKT sky130_fd_pr__res_bent_po__example_55959141808692 2 3
** N=7 EP=2 IP=0 FDC=1
R0 3 2 L=900 W=0.33 m=1 mult=1 model="mrp1" $[mrp1] $X=-250 $Y=-3240 $D=257
.ENDS
***************************************
.SUBCKT sky130_fd_pr__dfl1sd2__example_55959141808666
** N=23 EP=0 IP=0 FDC=0
*.SEEDPROM
.ENDS
***************************************
.SUBCKT sky130_fd_pr__pfet_01v8__example_55959141808687 2 3 4
** N=55 EP=3 IP=33 FDC=10
*.SEEDPROM
M0 4 3 2 2 pshort L=0.18 W=7 AD=0.98 AS=1.96 PD=7.28 PS=14.56 NRD=0 NRS=0 m=1 r=38.8889 sa=90000.2 sb=90004.3 a=1.26 p=14.36 mult=1 $X=0 $Y=0 $D=79
M1 2 3 4 2 pshort L=0.18 W=7 AD=0.98 AS=0.98 PD=7.28 PS=7.28 NRD=0 NRS=0 m=1 r=38.8889 sa=90000.7 sb=90003.9 a=1.26 p=14.36 mult=1 $X=460 $Y=0 $D=79
M2 4 3 2 2 pshort L=0.18 W=7 AD=0.98 AS=0.98 PD=7.28 PS=7.28 NRD=0 NRS=0 m=1 r=38.8889 sa=90001.1 sb=90003.4 a=1.26 p=14.36 mult=1 $X=920 $Y=0 $D=79
M3 2 3 4 2 pshort L=0.18 W=7 AD=0.98 AS=0.98 PD=7.28 PS=7.28 NRD=0 NRS=0 m=1 r=38.8889 sa=90001.6 sb=90002.9 a=1.26 p=14.36 mult=1 $X=1380 $Y=0 $D=79
M4 4 3 2 2 pshort L=0.18 W=7 AD=0.98 AS=0.98 PD=7.28 PS=7.28 NRD=0 NRS=0 m=1 r=38.8889 sa=90002 sb=90002.5 a=1.26 p=14.36 mult=1 $X=1840 $Y=0 $D=79
M5 2 3 4 2 pshort L=0.18 W=7 AD=0.98 AS=0.98 PD=7.28 PS=7.28 NRD=0 NRS=0 m=1 r=38.8889 sa=90002.5 sb=90002 a=1.26 p=14.36 mult=1 $X=2300 $Y=0 $D=79
M6 4 3 2 2 pshort L=0.18 W=7 AD=0.98 AS=0.98 PD=7.28 PS=7.28 NRD=0 NRS=0 m=1 r=38.8889 sa=90002.9 sb=90001.6 a=1.26 p=14.36 mult=1 $X=2760 $Y=0 $D=79
M7 2 3 4 2 pshort L=0.18 W=7 AD=0.98 AS=0.98 PD=7.28 PS=7.28 NRD=0 NRS=0 m=1 r=38.8889 sa=90003.4 sb=90001.1 a=1.26 p=14.36 mult=1 $X=3220 $Y=0 $D=79
M8 4 3 2 2 pshort L=0.18 W=7 AD=0.98 AS=0.98 PD=7.28 PS=7.28 NRD=0 NRS=0 m=1 r=38.8889 sa=90003.9 sb=90000.7 a=1.26 p=14.36 mult=1 $X=3680 $Y=0 $D=79
M9 2 3 4 2 pshort L=0.18 W=7 AD=1.96 AS=0.98 PD=14.56 PS=7.28 NRD=0 NRS=0 m=1 r=38.8889 sa=90004.3 sb=90000.2 a=1.26 p=14.36 mult=1 $X=4140 $Y=0 $D=79
.ENDS
***************************************
.SUBCKT sky130_fd_pr__dfl1__example_55959141808682
** N=24 EP=0 IP=0 FDC=0
*.SEEDPROM
.ENDS
***************************************
.SUBCKT ICV_4
** N=4 EP=0 IP=8 FDC=0
*.SEEDPROM
.ENDS
***************************************
.SUBCKT sky130_fd_pr__dfl1__example_55959141808681
** N=18 EP=0 IP=0 FDC=0
*.SEEDPROM
.ENDS
***************************************
.SUBCKT ICV_5
** N=4 EP=0 IP=8 FDC=0
*.SEEDPROM
.ENDS
***************************************
.SUBCKT sky130_fd_pr__res_bent_po__example_55959141808691 2 3
** N=7 EP=2 IP=0 FDC=1
R0 3 2 L=200 W=0.33 m=1 mult=1 model="mrp1" $[mrp1] $X=-250 $Y=-9720 $D=257
.ENDS
***************************************
.SUBCKT sky130_fd_pr__hvdfl1sd__example_55959141808700
** N=21 EP=0 IP=0 FDC=0
.ENDS
***************************************
.SUBCKT sky130_fd_pr__hvdfl1sd2__example_55959141808559
** N=21 EP=0 IP=0 FDC=0
.ENDS
***************************************
.SUBCKT sky130_fd_pr__nfet_01v8__example_55959141808699
** N=68 EP=0 IP=46 FDC=0
*.SEEDPROM
.ENDS
***************************************
.SUBCKT sky130_fd_pr__dftpl1s2__example_55959141808702
** N=63 EP=0 IP=0 FDC=0
*.SEEDPROM
.ENDS
***************************************
.SUBCKT sky130_fd_pr__nfet_01v8__example_55959141808704 2
** N=25 EP=1 IP=33 FDC=2
*.SEEDPROM
X0 2 2 Dpar a=2.1 p=14.6 m=1 $[ndiode] $X=-1825 $Y=0 $D=181
X1 2 2 Dpar a=2.1 p=14.6 m=1 $[ndiode] $X=40675 $Y=0 $D=181
.ENDS
***************************************
.SUBCKT sky130_fd_pr__dftpl1s2__example_55959141808694
** N=45 EP=0 IP=0 FDC=0
*.SEEDPROM
.ENDS
***************************************
.SUBCKT sky130_fd_pr__nfet_01v8__example_55959141808695 2
** N=25 EP=1 IP=33 FDC=2
*.SEEDPROM
X0 2 2 Dpar a=1.5 p=10.6 m=1 $[ndiode] $X=-1825 $Y=0 $D=181
X1 2 2 Dpar a=1.5 p=10.6 m=1 $[ndiode] $X=40675 $Y=0 $D=181
.ENDS
***************************************
.SUBCKT sky130_fd_pr__dfl1sd2__example_55959141808679
** N=24 EP=0 IP=0 FDC=0
*.SEEDPROM
.ENDS
***************************************
.SUBCKT sky130_fd_pr__nfet_01v8__example_55959141808696
** N=46 EP=0 IP=48 FDC=0
*.SEEDPROM
.ENDS
***************************************
.SUBCKT sky130_fd_pr__hvdfl1sd__example_5595914180851
** N=17 EP=0 IP=0 FDC=0
*.SEEDPROM
.ENDS
***************************************
.SUBCKT sky130_fd_pr__hvdfl1sd2__example_55959141808378
** N=18 EP=0 IP=0 FDC=0
*.SEEDPROM
.ENDS
***************************************
.SUBCKT sky130_fd_pr__nfet_01v8__example_55959141808698
** N=61 EP=0 IP=54 FDC=0
*.SEEDPROM
.ENDS
***************************************
.SUBCKT sky130_fd_pr__tpl1__example_55959141808685
** N=48 EP=0 IP=0 FDC=0
.ENDS
***************************************
.SUBCKT sky130_fd_pr__tpl1__example_55959141808686
** N=57 EP=0 IP=0 FDC=0
.ENDS
***************************************
.SUBCKT sky130_fd_io__gnd2gnd_tap
** N=174 EP=0 IP=0 FDC=0
.ENDS
***************************************
.SUBCKT sky130_fd_io__gnd2gnd_diff
** N=174 EP=0 IP=0 FDC=0
.ENDS
***************************************
.SUBCKT sky130_fd_io__gnd2gnd_sub_dnwl 1 2
** N=3 EP=2 IP=22 FDC=1
X0 1 2 Dpar a=283.052 p=67.56 m=1 $[nwdiode] $X=900 $Y=900 $D=191
.ENDS
***************************************
.SUBCKT sky130_fd_io__gnd2gnd_120x2_lv_isosub VSUB VSSI VSS_N
** N=3 EP=3 IP=6 FDC=10
D0 VSS_N VSSI pdiode AREA=22.5 PJ=33 m=1 ahftempperim=33 $X=3160 $Y=1100 $D=172
D1 VSS_N VSSI pdiode AREA=22.5 PJ=33 m=1 ahftempperim=33 $X=7280 $Y=1100 $D=172
D2 VSS_N VSSI pdiode AREA=22.5 PJ=33 m=1 ahftempperim=33 $X=11400 $Y=1100 $D=172
D3 VSS_N VSSI pdiode AREA=22.5 PJ=33 m=1 ahftempperim=33 $X=15520 $Y=1100 $D=172
D4 VSSI VSS_N pdiode AREA=22.5 PJ=33 m=1 ahftempperim=33 $X=23150 $Y=1100 $D=172
D5 VSSI VSS_N pdiode AREA=22.5 PJ=33 m=1 ahftempperim=33 $X=27270 $Y=1100 $D=172
D6 VSSI VSS_N pdiode AREA=22.5 PJ=33 m=1 ahftempperim=33 $X=31390 $Y=1100 $D=172
D7 VSSI VSS_N pdiode AREA=22.5 PJ=33 m=1 ahftempperim=33 $X=35510 $Y=1100 $D=172
X8 VSUB VSSI sky130_fd_io__gnd2gnd_sub_dnwl $T=0 0 0 0 $X=0 $Y=0
X9 VSUB VSS_N sky130_fd_io__gnd2gnd_sub_dnwl $T=40170 0 1 180 $X=19990 $Y=0
.ENDS
***************************************
.SUBCKT sky130_fd_pr__nfet_01v8__example_55959141808701 2
** N=41 EP=1 IP=57 FDC=2
*.SEEDPROM
X0 2 2 Dpar a=2.1 p=14.6 m=1 $[ndiode] $X=-1200 $Y=0 $D=181
X1 2 2 Dpar a=2.1 p=14.6 m=1 $[ndiode] $X=49360 $Y=0 $D=181
.ENDS
***************************************
.SUBCKT sky130_fd_pr__nfet_01v8__example_55959141808703 2
** N=29 EP=1 IP=39 FDC=2
*.SEEDPROM
X0 2 2 Dpar a=2.1 p=14.6 m=1 $[ndiode] $X=-1825 $Y=0 $D=181
X1 2 2 Dpar a=2.1 p=14.6 m=1 $[ndiode] $X=49035 $Y=0 $D=181
.ENDS
***************************************
.SUBCKT sky130_fd_pr__nfet_01v8__example_55959141808705 2
** N=43 EP=1 IP=60 FDC=2
*.SEEDPROM
X0 2 2 Dpar a=2.1 p=14.6 m=1 $[ndiode] $X=-1200 $Y=0 $D=181
X1 2 2 Dpar a=2.1 p=14.6 m=1 $[ndiode] $X=52130 $Y=0 $D=181
.ENDS
***************************************
.SUBCKT sky130_fd_pr__nfet_01v8__example_55959141808693 2
** N=43 EP=1 IP=60 FDC=2
*.SEEDPROM
X0 2 2 Dpar a=1.5 p=10.6 m=1 $[ndiode] $X=-1200 $Y=0 $D=181
X1 2 2 Dpar a=1.5 p=10.6 m=1 $[ndiode] $X=52130 $Y=0 $D=181
.ENDS
***************************************
.SUBCKT sky130_fd_pr__nfet_01v8__example_55959141808697
** N=37 EP=0 IP=34 FDC=0
*.SEEDPROM
.ENDS
***************************************
.SUBCKT sky130_fd_pr__res_bent_po__example_55959141808688 3 4
** N=8 EP=2 IP=0 FDC=1
*.SEEDPROM
R0 3 4 L=720 W=0.33 m=1 mult=1 model="mrp1" $[mrp1] $X=-250 $Y=-8100 $D=257
.ENDS
***************************************
.SUBCKT sky130_fd_pr__res_bent_po__example_55959141808690 2 3
** N=6 EP=2 IP=0 FDC=1
R0 3 2 L=300 W=0.33 m=1 mult=1 model="mrp1" $[mrp1] $X=-250 $Y=-3240 $D=257
.ENDS
***************************************
.SUBCKT sky130_fd_io__top_power_lvc_wpad VSSD SRC_BDY_LVC2 SRC_BDY_LVC1 DRN_LVC1 VDDIO DRN_LVC2 BDY2_B2B P_CORE P_PAD
** N=12422 EP=9 IP=1228 FDC=501
*.CALIBRE ISOLATED NETS: OGC_LVC VCCHIB VCCD VDDA VSSIO VSWITCH VSSA AMUXBUS_B AMUXBUS_A VSSIO_Q VDDIO_Q
M0 DRN_LVC2 25 SRC_BDY_LVC2 SRC_BDY_LVC2 nshort L=0.18 W=7 AD=3.535 AS=3.5 PD=8.01 PS=15 NRD=3.336 NRS=3.42 m=1 r=38.8889 sa=90001.1 sb=90019.9 a=1.26 p=14.36 mult=1 $X=14360 $Y=26860 $D=9
M1 DRN_LVC2 25 SRC_BDY_LVC2 SRC_BDY_LVC2 nshort L=0.18 W=7 AD=3.535 AS=3.5 PD=8.01 PS=15 NRD=3.336 NRS=3.42 m=1 r=38.8889 sa=90001.1 sb=90019.9 a=1.26 p=14.36 mult=1 $X=14360 $Y=36860 $D=9
M2 DRN_LVC2 25 SRC_BDY_LVC2 SRC_BDY_LVC2 nshort L=0.18 W=7 AD=3.535 AS=3.5 PD=8.01 PS=15 NRD=3.336 NRS=3.42 m=1 r=38.8889 sa=90001.1 sb=90019.9 a=1.26 p=14.36 mult=1 $X=14360 $Y=46860 $D=9
M3 DRN_LVC2 25 SRC_BDY_LVC2 SRC_BDY_LVC2 nshort L=0.18 W=7 AD=3.535 AS=3.5 PD=8.01 PS=15 NRD=3.336 NRS=3.42 m=1 r=38.8889 sa=90001.1 sb=90019.9 a=1.26 p=14.36 mult=1 $X=14360 $Y=56860 $D=9
M4 DRN_LVC2 25 SRC_BDY_LVC2 SRC_BDY_LVC2 nshort L=0.18 W=5 AD=2.525 AS=2.5 PD=6.01 PS=11 NRD=4.68 NRS=4.8 m=1 r=27.7778 sa=90001.1 sb=90019.9 a=0.9 p=10.36 mult=1 $X=14360 $Y=66860 $D=9
M5 DRN_LVC1 24 SRC_BDY_LVC1 SRC_BDY_LVC1 nshort L=0.18 W=7 AD=3.535 AS=3.5 PD=8.01 PS=15 NRD=3.336 NRS=3.42 m=1 r=38.8889 sa=90001.1 sb=90019.9 a=1.26 p=14.36 mult=1 $X=14360 $Y=186860 $D=9
M6 SRC_BDY_LVC2 25 DRN_LVC2 SRC_BDY_LVC2 nshort L=0.18 W=7 AD=3.5 AS=3.535 PD=15 PS=8.01 NRD=3.42 NRS=3.336 m=1 r=38.8889 sa=90002.3 sb=90019.9 a=1.26 p=14.36 mult=1 $X=15550 $Y=26860 $D=9
M7 SRC_BDY_LVC2 25 DRN_LVC2 SRC_BDY_LVC2 nshort L=0.18 W=7 AD=3.5 AS=3.535 PD=15 PS=8.01 NRD=3.42 NRS=3.336 m=1 r=38.8889 sa=90002.3 sb=90019.9 a=1.26 p=14.36 mult=1 $X=15550 $Y=36860 $D=9
M8 SRC_BDY_LVC2 25 DRN_LVC2 SRC_BDY_LVC2 nshort L=0.18 W=7 AD=3.5 AS=3.535 PD=15 PS=8.01 NRD=3.42 NRS=3.336 m=1 r=38.8889 sa=90002.3 sb=90019.9 a=1.26 p=14.36 mult=1 $X=15550 $Y=46860 $D=9
M9 SRC_BDY_LVC2 25 DRN_LVC2 SRC_BDY_LVC2 nshort L=0.18 W=7 AD=3.5 AS=3.535 PD=15 PS=8.01 NRD=3.42 NRS=3.336 m=1 r=38.8889 sa=90002.3 sb=90019.9 a=1.26 p=14.36 mult=1 $X=15550 $Y=56860 $D=9
M10 SRC_BDY_LVC2 25 DRN_LVC2 SRC_BDY_LVC2 nshort L=0.18 W=5 AD=2.5 AS=2.525 PD=11 PS=6.01 NRD=4.8 NRS=4.68 m=1 r=27.7778 sa=90002.3 sb=90019.9 a=0.9 p=10.36 mult=1 $X=15550 $Y=66860 $D=9
M11 SRC_BDY_LVC1 24 DRN_LVC1 SRC_BDY_LVC1 nshort L=0.18 W=7 AD=3.5 AS=3.535 PD=15 PS=8.01 NRD=3.42 NRS=3.336 m=1 r=38.8889 sa=90002.3 sb=90019.9 a=1.26 p=14.36 mult=1 $X=15550 $Y=186860 $D=9
M12 SRC_BDY_LVC2 23 SRC_BDY_LVC2 SRC_BDY_LVC2 nshort L=4 W=5 AD=0.7 AS=1.325 PD=5.28 PS=10.53 NRD=0 NRS=0 m=1 r=1.25 sa=2e+06 sb=2.00002e+06 a=20 p=18 mult=1 $X=12975 $Y=75805 $D=9
M13 DRN_LVC2 25 SRC_BDY_LVC2 SRC_BDY_LVC2 nshort L=0.18 W=7 AD=3.535 AS=3.5 PD=8.01 PS=15 NRD=3.336 NRS=3.42 m=1 r=38.8889 sa=90003.9 sb=90019.9 a=1.26 p=14.36 mult=1 $X=17130 $Y=26860 $D=9
M14 DRN_LVC2 25 SRC_BDY_LVC2 SRC_BDY_LVC2 nshort L=0.18 W=7 AD=3.535 AS=3.5 PD=8.01 PS=15 NRD=3.336 NRS=3.42 m=1 r=38.8889 sa=90003.9 sb=90019.9 a=1.26 p=14.36 mult=1 $X=17130 $Y=36860 $D=9
M15 DRN_LVC2 25 SRC_BDY_LVC2 SRC_BDY_LVC2 nshort L=0.18 W=7 AD=3.535 AS=3.5 PD=8.01 PS=15 NRD=3.336 NRS=3.42 m=1 r=38.8889 sa=90003.9 sb=90019.9 a=1.26 p=14.36 mult=1 $X=17130 $Y=46860 $D=9
M16 DRN_LVC2 25 SRC_BDY_LVC2 SRC_BDY_LVC2 nshort L=0.18 W=7 AD=3.535 AS=3.5 PD=8.01 PS=15 NRD=3.336 NRS=3.42 m=1 r=38.8889 sa=90003.9 sb=90019.9 a=1.26 p=14.36 mult=1 $X=17130 $Y=56860 $D=9
M17 DRN_LVC2 25 SRC_BDY_LVC2 SRC_BDY_LVC2 nshort L=0.18 W=5 AD=2.525 AS=2.5 PD=6.01 PS=11 NRD=4.68 NRS=4.8 m=1 r=27.7778 sa=90003.9 sb=90019.9 a=0.9 p=10.36 mult=1 $X=17130 $Y=66860 $D=9
M18 DRN_LVC1 24 SRC_BDY_LVC1 SRC_BDY_LVC1 nshort L=0.18 W=7 AD=3.535 AS=3.5 PD=8.01 PS=15 NRD=3.336 NRS=3.42 m=1 r=38.8889 sa=90001.1 sb=90019.9 a=1.26 p=14.36 mult=1 $X=17130 $Y=176860 $D=9
M19 DRN_LVC1 24 SRC_BDY_LVC1 SRC_BDY_LVC1 nshort L=0.18 W=7 AD=3.535 AS=3.5 PD=8.01 PS=15 NRD=3.336 NRS=3.42 m=1 r=38.8889 sa=90003.9 sb=90019.9 a=1.26 p=14.36 mult=1 $X=17130 $Y=186860 $D=9
M20 DRN_LVC1 24 SRC_BDY_LVC1 SRC_BDY_LVC1 nshort L=0.18 W=7 AD=4.095 AS=7.875 PD=8.17 PS=16.25 NRD=4.704 NRS=14.136 m=1 r=38.8889 sa=90001.7 sb=90019.9 a=1.26 p=14.36 mult=1 $X=17455 $Y=146860 $D=9
M21 DRN_LVC1 24 SRC_BDY_LVC1 SRC_BDY_LVC1 nshort L=0.18 W=7 AD=4.095 AS=7.875 PD=8.17 PS=16.25 NRD=4.704 NRS=14.136 m=1 r=38.8889 sa=90001.7 sb=90019.9 a=1.26 p=14.36 mult=1 $X=17455 $Y=156860 $D=9
M22 DRN_LVC1 24 SRC_BDY_LVC1 SRC_BDY_LVC1 nshort L=0.18 W=7 AD=4.095 AS=7.875 PD=8.17 PS=16.25 NRD=4.704 NRS=14.136 m=1 r=38.8889 sa=90001.7 sb=90019.9 a=1.26 p=14.36 mult=1 $X=17455 $Y=166860 $D=9
M23 SRC_BDY_LVC2 25 DRN_LVC2 SRC_BDY_LVC2 nshort L=0.18 W=7 AD=3.5 AS=3.535 PD=15 PS=8.01 NRD=3.42 NRS=3.336 m=1 r=38.8889 sa=90005.1 sb=90019.9 a=1.26 p=14.36 mult=1 $X=18320 $Y=26860 $D=9
M24 SRC_BDY_LVC2 25 DRN_LVC2 SRC_BDY_LVC2 nshort L=0.18 W=7 AD=3.5 AS=3.535 PD=15 PS=8.01 NRD=3.42 NRS=3.336 m=1 r=38.8889 sa=90005.1 sb=90019.9 a=1.26 p=14.36 mult=1 $X=18320 $Y=36860 $D=9
M25 SRC_BDY_LVC2 25 DRN_LVC2 SRC_BDY_LVC2 nshort L=0.18 W=7 AD=3.5 AS=3.535 PD=15 PS=8.01 NRD=3.42 NRS=3.336 m=1 r=38.8889 sa=90005.1 sb=90019.9 a=1.26 p=14.36 mult=1 $X=18320 $Y=46860 $D=9
M26 SRC_BDY_LVC2 25 DRN_LVC2 SRC_BDY_LVC2 nshort L=0.18 W=7 AD=3.5 AS=3.535 PD=15 PS=8.01 NRD=3.42 NRS=3.336 m=1 r=38.8889 sa=90005.1 sb=90019.9 a=1.26 p=14.36 mult=1 $X=18320 $Y=56860 $D=9
M27 SRC_BDY_LVC2 25 DRN_LVC2 SRC_BDY_LVC2 nshort L=0.18 W=5 AD=2.5 AS=2.525 PD=11 PS=6.01 NRD=4.8 NRS=4.68 m=1 r=27.7778 sa=90005.1 sb=90019.9 a=0.9 p=10.36 mult=1 $X=18320 $Y=66860 $D=9
M28 SRC_BDY_LVC1 24 DRN_LVC1 SRC_BDY_LVC1 nshort L=0.18 W=7 AD=3.5 AS=3.535 PD=15 PS=8.01 NRD=3.42 NRS=3.336 m=1 r=38.8889 sa=90002.3 sb=90019.9 a=1.26 p=14.36 mult=1 $X=18320 $Y=176860 $D=9
M29 SRC_BDY_LVC1 24 DRN_LVC1 SRC_BDY_LVC1 nshort L=0.18 W=7 AD=3.5 AS=3.535 PD=15 PS=8.01 NRD=3.42 NRS=3.336 m=1 r=38.8889 sa=90005.1 sb=90019.9 a=1.26 p=14.36 mult=1 $X=18320 $Y=186860 $D=9
M30 SRC_BDY_LVC1 24 DRN_LVC1 SRC_BDY_LVC1 nshort L=0.18 W=7 AD=7.875 AS=4.095 PD=16.25 PS=8.17 NRD=14.136 NRS=4.704 m=1 r=38.8889 sa=90003.1 sb=90019.9 a=1.26 p=14.36 mult=1 $X=18805 $Y=146860 $D=9
M31 SRC_BDY_LVC1 24 DRN_LVC1 SRC_BDY_LVC1 nshort L=0.18 W=7 AD=7.875 AS=4.095 PD=16.25 PS=8.17 NRD=14.136 NRS=4.704 m=1 r=38.8889 sa=90003.1 sb=90019.9 a=1.26 p=14.36 mult=1 $X=18805 $Y=156860 $D=9
M32 SRC_BDY_LVC1 24 DRN_LVC1 SRC_BDY_LVC1 nshort L=0.18 W=7 AD=7.875 AS=4.095 PD=16.25 PS=8.17 NRD=14.136 NRS=4.704 m=1 r=38.8889 sa=90003.1 sb=90019.9 a=1.26 p=14.36 mult=1 $X=18805 $Y=166860 $D=9
M33 DRN_LVC2 25 SRC_BDY_LVC2 SRC_BDY_LVC2 nshort L=0.18 W=7 AD=3.535 AS=3.5 PD=8.01 PS=15 NRD=3.336 NRS=3.42 m=1 r=38.8889 sa=90006.6 sb=90019.9 a=1.26 p=14.36 mult=1 $X=19900 $Y=26860 $D=9
M34 DRN_LVC2 25 SRC_BDY_LVC2 SRC_BDY_LVC2 nshort L=0.18 W=7 AD=3.535 AS=3.5 PD=8.01 PS=15 NRD=3.336 NRS=3.42 m=1 r=38.8889 sa=90006.6 sb=90019.9 a=1.26 p=14.36 mult=1 $X=19900 $Y=36860 $D=9
M35 DRN_LVC2 25 SRC_BDY_LVC2 SRC_BDY_LVC2 nshort L=0.18 W=7 AD=3.535 AS=3.5 PD=8.01 PS=15 NRD=3.336 NRS=3.42 m=1 r=38.8889 sa=90006.6 sb=90019.9 a=1.26 p=14.36 mult=1 $X=19900 $Y=46860 $D=9
M36 DRN_LVC2 25 SRC_BDY_LVC2 SRC_BDY_LVC2 nshort L=0.18 W=7 AD=3.535 AS=3.5 PD=8.01 PS=15 NRD=3.336 NRS=3.42 m=1 r=38.8889 sa=90006.6 sb=90019.9 a=1.26 p=14.36 mult=1 $X=19900 $Y=56860 $D=9
M37 DRN_LVC2 25 SRC_BDY_LVC2 SRC_BDY_LVC2 nshort L=0.18 W=5 AD=2.525 AS=2.5 PD=6.01 PS=11 NRD=4.68 NRS=4.8 m=1 r=27.7778 sa=90006.6 sb=90019.9 a=0.9 p=10.36 mult=1 $X=19900 $Y=66860 $D=9
M38 DRN_LVC1 24 SRC_BDY_LVC1 SRC_BDY_LVC1 nshort L=0.18 W=7 AD=3.535 AS=3.5 PD=8.01 PS=15 NRD=3.336 NRS=3.42 m=1 r=38.8889 sa=90003.9 sb=90019.9 a=1.26 p=14.36 mult=1 $X=19900 $Y=176860 $D=9
M39 DRN_LVC1 24 SRC_BDY_LVC1 SRC_BDY_LVC1 nshort L=0.18 W=7 AD=3.535 AS=3.5 PD=8.01 PS=15 NRD=3.336 NRS=3.42 m=1 r=38.8889 sa=90006.6 sb=90019.9 a=1.26 p=14.36 mult=1 $X=19900 $Y=186860 $D=9
M40 SRC_BDY_LVC2 25 DRN_LVC2 SRC_BDY_LVC2 nshort L=0.18 W=7 AD=3.5 AS=3.535 PD=15 PS=8.01 NRD=3.42 NRS=3.336 m=1 r=38.8889 sa=90007.8 sb=90019.9 a=1.26 p=14.36 mult=1 $X=21090 $Y=26860 $D=9
M41 SRC_BDY_LVC2 25 DRN_LVC2 SRC_BDY_LVC2 nshort L=0.18 W=7 AD=3.5 AS=3.535 PD=15 PS=8.01 NRD=3.42 NRS=3.336 m=1 r=38.8889 sa=90007.8 sb=90019.9 a=1.26 p=14.36 mult=1 $X=21090 $Y=36860 $D=9
M42 SRC_BDY_LVC2 25 DRN_LVC2 SRC_BDY_LVC2 nshort L=0.18 W=7 AD=3.5 AS=3.535 PD=15 PS=8.01 NRD=3.42 NRS=3.336 m=1 r=38.8889 sa=90007.8 sb=90019.9 a=1.26 p=14.36 mult=1 $X=21090 $Y=46860 $D=9
M43 SRC_BDY_LVC2 25 DRN_LVC2 SRC_BDY_LVC2 nshort L=0.18 W=7 AD=3.5 AS=3.535 PD=15 PS=8.01 NRD=3.42 NRS=3.336 m=1 r=38.8889 sa=90007.8 sb=90019.9 a=1.26 p=14.36 mult=1 $X=21090 $Y=56860 $D=9
M44 SRC_BDY_LVC2 25 DRN_LVC2 SRC_BDY_LVC2 nshort L=0.18 W=5 AD=2.5 AS=2.525 PD=11 PS=6.01 NRD=4.8 NRS=4.68 m=1 r=27.7778 sa=90007.8 sb=90019.9 a=0.9 p=10.36 mult=1 $X=21090 $Y=66860 $D=9
M45 SRC_BDY_LVC1 24 DRN_LVC1 SRC_BDY_LVC1 nshort L=0.18 W=7 AD=3.5 AS=3.535 PD=15 PS=8.01 NRD=3.42 NRS=3.336 m=1 r=38.8889 sa=90005.1 sb=90019.9 a=1.26 p=14.36 mult=1 $X=21090 $Y=176860 $D=9
M46 SRC_BDY_LVC1 24 DRN_LVC1 SRC_BDY_LVC1 nshort L=0.18 W=7 AD=3.5 AS=3.535 PD=15 PS=8.01 NRD=3.42 NRS=3.336 m=1 r=38.8889 sa=90007.8 sb=90019.9 a=1.26 p=14.36 mult=1 $X=21090 $Y=186860 $D=9
M47 DRN_LVC1 24 SRC_BDY_LVC1 SRC_BDY_LVC1 nshort L=0.18 W=7 AD=4.095 AS=7.875 PD=8.17 PS=16.25 NRD=4.704 NRS=14.136 m=1 r=38.8889 sa=90005.9 sb=90019.9 a=1.26 p=14.36 mult=1 $X=21635 $Y=146860 $D=9
M48 DRN_LVC1 24 SRC_BDY_LVC1 SRC_BDY_LVC1 nshort L=0.18 W=7 AD=4.095 AS=7.875 PD=8.17 PS=16.25 NRD=4.704 NRS=14.136 m=1 r=38.8889 sa=90005.9 sb=90019.9 a=1.26 p=14.36 mult=1 $X=21635 $Y=156860 $D=9
M49 DRN_LVC1 24 SRC_BDY_LVC1 SRC_BDY_LVC1 nshort L=0.18 W=7 AD=4.095 AS=7.875 PD=8.17 PS=16.25 NRD=4.704 NRS=14.136 m=1 r=38.8889 sa=90005.9 sb=90019.9 a=1.26 p=14.36 mult=1 $X=21635 $Y=166860 $D=9
M50 DRN_LVC2 25 SRC_BDY_LVC2 SRC_BDY_LVC2 nshort L=0.18 W=7 AD=3.535 AS=3.5 PD=8.01 PS=15 NRD=3.336 NRS=3.42 m=1 r=38.8889 sa=90009.4 sb=90019.9 a=1.26 p=14.36 mult=1 $X=22670 $Y=26860 $D=9
M51 DRN_LVC2 25 SRC_BDY_LVC2 SRC_BDY_LVC2 nshort L=0.18 W=7 AD=3.535 AS=3.5 PD=8.01 PS=15 NRD=3.336 NRS=3.42 m=1 r=38.8889 sa=90009.4 sb=90019.9 a=1.26 p=14.36 mult=1 $X=22670 $Y=36860 $D=9
M52 DRN_LVC2 25 SRC_BDY_LVC2 SRC_BDY_LVC2 nshort L=0.18 W=7 AD=3.535 AS=3.5 PD=8.01 PS=15 NRD=3.336 NRS=3.42 m=1 r=38.8889 sa=90009.4 sb=90019.9 a=1.26 p=14.36 mult=1 $X=22670 $Y=46860 $D=9
M53 DRN_LVC2 25 SRC_BDY_LVC2 SRC_BDY_LVC2 nshort L=0.18 W=7 AD=3.535 AS=3.5 PD=8.01 PS=15 NRD=3.336 NRS=3.42 m=1 r=38.8889 sa=90009.4 sb=90019.9 a=1.26 p=14.36 mult=1 $X=22670 $Y=56860 $D=9
M54 DRN_LVC2 25 SRC_BDY_LVC2 SRC_BDY_LVC2 nshort L=0.18 W=5 AD=2.525 AS=2.5 PD=6.01 PS=11 NRD=4.68 NRS=4.8 m=1 r=27.7778 sa=90009.4 sb=90019.9 a=0.9 p=10.36 mult=1 $X=22670 $Y=66860 $D=9
M55 DRN_LVC1 24 SRC_BDY_LVC1 SRC_BDY_LVC1 nshort L=0.18 W=7 AD=3.535 AS=3.5 PD=8.01 PS=15 NRD=3.336 NRS=3.42 m=1 r=38.8889 sa=90006.6 sb=90019.9 a=1.26 p=14.36 mult=1 $X=22670 $Y=176860 $D=9
M56 DRN_LVC1 24 SRC_BDY_LVC1 SRC_BDY_LVC1 nshort L=0.18 W=7 AD=3.535 AS=3.5 PD=8.01 PS=15 NRD=3.336 NRS=3.42 m=1 r=38.8889 sa=90009.4 sb=90019.9 a=1.26 p=14.36 mult=1 $X=22670 $Y=186860 $D=9
M57 SRC_BDY_LVC1 24 DRN_LVC1 SRC_BDY_LVC1 nshort L=0.18 W=7 AD=7.875 AS=4.095 PD=16.25 PS=8.17 NRD=14.136 NRS=4.704 m=1 r=38.8889 sa=90007.3 sb=90019.9 a=1.26 p=14.36 mult=1 $X=22985 $Y=146860 $D=9
M58 SRC_BDY_LVC1 24 DRN_LVC1 SRC_BDY_LVC1 nshort L=0.18 W=7 AD=7.875 AS=4.095 PD=16.25 PS=8.17 NRD=14.136 NRS=4.704 m=1 r=38.8889 sa=90007.3 sb=90019.9 a=1.26 p=14.36 mult=1 $X=22985 $Y=156860 $D=9
M59 SRC_BDY_LVC1 24 DRN_LVC1 SRC_BDY_LVC1 nshort L=0.18 W=7 AD=7.875 AS=4.095 PD=16.25 PS=8.17 NRD=14.136 NRS=4.704 m=1 r=38.8889 sa=90007.3 sb=90019.9 a=1.26 p=14.36 mult=1 $X=22985 $Y=166860 $D=9
M60 SRC_BDY_LVC2 25 DRN_LVC2 SRC_BDY_LVC2 nshort L=0.18 W=7 AD=3.5 AS=3.535 PD=15 PS=8.01 NRD=3.42 NRS=3.336 m=1 r=38.8889 sa=90010.6 sb=90019.9 a=1.26 p=14.36 mult=1 $X=23860 $Y=26860 $D=9
M61 SRC_BDY_LVC2 25 DRN_LVC2 SRC_BDY_LVC2 nshort L=0.18 W=7 AD=3.5 AS=3.535 PD=15 PS=8.01 NRD=3.42 NRS=3.336 m=1 r=38.8889 sa=90010.6 sb=90019.9 a=1.26 p=14.36 mult=1 $X=23860 $Y=36860 $D=9
M62 SRC_BDY_LVC2 25 DRN_LVC2 SRC_BDY_LVC2 nshort L=0.18 W=7 AD=3.5 AS=3.535 PD=15 PS=8.01 NRD=3.42 NRS=3.336 m=1 r=38.8889 sa=90010.6 sb=90019.9 a=1.26 p=14.36 mult=1 $X=23860 $Y=46860 $D=9
M63 SRC_BDY_LVC2 25 DRN_LVC2 SRC_BDY_LVC2 nshort L=0.18 W=7 AD=3.5 AS=3.535 PD=15 PS=8.01 NRD=3.42 NRS=3.336 m=1 r=38.8889 sa=90010.6 sb=90019.9 a=1.26 p=14.36 mult=1 $X=23860 $Y=56860 $D=9
M64 SRC_BDY_LVC2 25 DRN_LVC2 SRC_BDY_LVC2 nshort L=0.18 W=5 AD=2.5 AS=2.525 PD=11 PS=6.01 NRD=4.8 NRS=4.68 m=1 r=27.7778 sa=90010.6 sb=90019.9 a=0.9 p=10.36 mult=1 $X=23860 $Y=66860 $D=9
M65 SRC_BDY_LVC1 24 DRN_LVC1 SRC_BDY_LVC1 nshort L=0.18 W=7 AD=3.5 AS=3.535 PD=15 PS=8.01 NRD=3.42 NRS=3.336 m=1 r=38.8889 sa=90007.8 sb=90019.9 a=1.26 p=14.36 mult=1 $X=23860 $Y=176860 $D=9
M66 SRC_BDY_LVC1 24 DRN_LVC1 SRC_BDY_LVC1 nshort L=0.18 W=7 AD=3.5 AS=3.535 PD=15 PS=8.01 NRD=3.42 NRS=3.336 m=1 r=38.8889 sa=90010.6 sb=90019.9 a=1.26 p=14.36 mult=1 $X=23860 $Y=186860 $D=9
M67 SRC_BDY_LVC2 23 25 SRC_BDY_LVC2 nshort L=0.18 W=7 AD=2.3975 AS=4.76 PD=7.685 PS=15.36 NRD=6.936 NRS=6.852 m=1 r=38.8889 sa=90000.6 sb=90019.9 a=1.26 p=14.36 mult=1 $X=24670 $Y=82805 $D=9
M68 SRC_BDY_LVC2 23 25 SRC_BDY_LVC2 nshort L=0.18 W=7 AD=2.3975 AS=4.76 PD=7.685 PS=15.36 NRD=6.936 NRS=6.852 m=1 r=38.8889 sa=90000.6 sb=90019.9 a=1.26 p=14.36 mult=1 $X=24670 $Y=91300 $D=9
M69 SRC_BDY_LVC1 21 24 SRC_BDY_LVC1 nshort L=0.18 W=7 AD=2.3975 AS=4.76 PD=7.685 PS=15.36 NRD=6.936 NRS=6.852 m=1 r=38.8889 sa=90000.6 sb=90019.9 a=1.26 p=14.36 mult=1 $X=24670 $Y=101405 $D=9
M70 SRC_BDY_LVC1 21 24 SRC_BDY_LVC1 nshort L=0.18 W=7 AD=2.3975 AS=4.76 PD=7.685 PS=15.36 NRD=6.936 NRS=6.852 m=1 r=38.8889 sa=90000.6 sb=90019.9 a=1.26 p=14.36 mult=1 $X=24670 $Y=109900 $D=9
M71 SRC_BDY_LVC1 21 24 SRC_BDY_LVC1 nshort L=0.18 W=7 AD=2.3975 AS=4.76 PD=7.685 PS=15.36 NRD=6.936 NRS=6.852 m=1 r=38.8889 sa=90000.6 sb=90019.9 a=1.26 p=14.36 mult=1 $X=24670 $Y=118725 $D=9
M72 SRC_BDY_LVC2 23 SRC_BDY_LVC2 SRC_BDY_LVC2 nshort L=8 W=5 AD=0.7 AS=0.7 PD=5.28 PS=5.28 NRD=0 NRS=0 m=1 r=0.625 sa=4e+06 sb=4.00002e+06 a=40 p=26 mult=1 $X=17255 $Y=75805 $D=9
M73 DRN_LVC2 25 SRC_BDY_LVC2 SRC_BDY_LVC2 nshort L=0.18 W=7 AD=3.535 AS=3.5 PD=8.01 PS=15 NRD=3.336 NRS=3.42 m=1 r=38.8889 sa=90012.2 sb=90019.9 a=1.26 p=14.36 mult=1 $X=25440 $Y=26860 $D=9
M74 DRN_LVC2 25 SRC_BDY_LVC2 SRC_BDY_LVC2 nshort L=0.18 W=7 AD=3.535 AS=3.5 PD=8.01 PS=15 NRD=3.336 NRS=3.42 m=1 r=38.8889 sa=90012.2 sb=90019.9 a=1.26 p=14.36 mult=1 $X=25440 $Y=36860 $D=9
M75 DRN_LVC2 25 SRC_BDY_LVC2 SRC_BDY_LVC2 nshort L=0.18 W=7 AD=3.535 AS=3.5 PD=8.01 PS=15 NRD=3.336 NRS=3.42 m=1 r=38.8889 sa=90012.2 sb=90019.9 a=1.26 p=14.36 mult=1 $X=25440 $Y=46860 $D=9
M76 DRN_LVC2 25 SRC_BDY_LVC2 SRC_BDY_LVC2 nshort L=0.18 W=7 AD=3.535 AS=3.5 PD=8.01 PS=15 NRD=3.336 NRS=3.42 m=1 r=38.8889 sa=90012.2 sb=90019.9 a=1.26 p=14.36 mult=1 $X=25440 $Y=56860 $D=9
M77 DRN_LVC2 25 SRC_BDY_LVC2 SRC_BDY_LVC2 nshort L=0.18 W=5 AD=2.525 AS=2.5 PD=6.01 PS=11 NRD=4.68 NRS=4.8 m=1 r=27.7778 sa=90012.2 sb=90019.9 a=0.9 p=10.36 mult=1 $X=25440 $Y=66860 $D=9
M78 DRN_LVC1 24 SRC_BDY_LVC1 SRC_BDY_LVC1 nshort L=0.18 W=7 AD=3.535 AS=3.5 PD=8.01 PS=15 NRD=3.336 NRS=3.42 m=1 r=38.8889 sa=90009.4 sb=90019.9 a=1.26 p=14.36 mult=1 $X=25440 $Y=176860 $D=9