*SPEF "IEEE 1481-1998"
*DESIGN "simple_por"
*DATE "Wed Nov 11 03:14:18 2020"
*VENDOR "AUC CSCE Department"
*PROGRAM "SPEF Extractor"
*VERSION "1.0"
*DESIGN_FLOW "PIN_CAP NONE"
*DIVIDER /
*DELIMITER :
*BUS_DELIMITER []
*T_UNIT 1.00000 NS
*C_UNIT 1.00000 PF
*R_UNIT 1.00000 OHM
*L_UNIT 1.00000 HENRY


*NAME_MAP
*0 porb_h
*1 vdd3v3
*2 vss
*3 _0_
*4 mid

*D_NET *0 0.00167723130293
*CONN
*P porb_h O
*I hystbuf2:X O
*CAP
0 *0:1 0.00024973915087999997
1 hystbuf2:X 0.00024973915087999997
2 *0:2 0.000588876500585
3 *0:3 0.000588876500585
*RES
0 *0:1 hystbuf2:X 5.142857142857142
1 *0:2 *0:3 13.379464285714285
2 hystbuf2:X hystbuf2:X 0
3 *0:1 *0:2 0
*END

*D_NET *1 0
*CONN
*P vdd3v3 I
*CAP
*RES
*END

*D_NET *2 0
*CONN
*P vss I
*CAP
*RES
*END

*D_NET *3 0.00038587409456000005
*CONN
*I hystbuf1:A I
*I _1_:LO O
*CAP
4 _1_:LO 4.635600848e-05
5 *3:1 4.635600848e-05
6 *3:2 0.00012056334456000002
7 *3:3 0.00012056334456000002
8 hystbuf1:A 2.601769424e-05
9 *3:4 2.601769424e-05
*RES
4 _1_:LO *3:1 0.857142857142857
5 *3:2 *3:3 2.642857142857143
6 hystbuf1:A *3:4 0.4285714285714285
7 _1_:LO _1_:LO 0
8 *3:1 *3:2 0
9 *3:4 *3:3 0
10 hystbuf1:A hystbuf1:A 0
*END

*D_NET *4 0.00041519196304
*CONN
*I hystbuf2:A I
*I hystbuf1:X O
*CAP
10 *4:1 8.703263695999999e-05
11 hystbuf1:X 8.703263695999999e-05
12 *4:2 0.00012056334456000002
13 *4:3 0.00012056334456000002
14 hystbuf2:A 0.0
*RES
11 *4:1 hystbuf1:X 1.714285714285714
12 *4:2 *4:3 2.642857142857143
13 hystbuf1:X hystbuf1:X 0
14 *4:1 *4:2 0
15 hystbuf2:A hystbuf2:A 0
16 hystbuf2:A *4:3 0
*END

